@<TRIPOS>MOLECULE
*****
 73 80 0 0 0
SMALL
GASTEIGER

@<TRIPOS>ATOM
      1 CAA        80.2670  171.2990   78.1370 C.3   601  HEM601      0.0000
      2 CAB        83.0890  172.6170   87.5470 C.2   601  HEM601      0.0000
      3 CAC        83.3480  164.6920   86.2670 C.2   601  HEM601      0.0000
      4 CAD        80.4490  165.9010   78.7900 C.3   601  HEM601      0.0000
      5 NA         81.5110  170.5040   81.6030 N.ar  601  HEM601      0.0000
      6 CBA        81.3320  171.1990   77.0740 C.3   601  HEM601      0.0000
      7 CBB        82.6390  173.6750   88.2140 C.2   601  HEM601      0.0000
      8 CBC        83.7120  163.7930   85.3640 C.2   601  HEM601      0.0000
      9 CBD        78.9420  166.0310   78.6530 C.3   601  HEM601      0.0000
     10 NB         82.3640  170.8820   84.2870 N.ar  601  HEM601      0.0000
     11 CGA        80.7080  171.3310   75.6630 C.2   601  HEM601      0.0000
     12 CGD        78.5190  165.6260   77.2370 C.2   601  HEM601      0.0000
     13 ND         81.7010  167.6800   81.8690 N.ar  601  HEM601      0.0000
     14 CHA        80.9250  168.7960   79.8630 C.2   601  HEM601      0.0000
     15 CHB        81.8280  172.6860   82.7130 C.2   601  HEM601      0.0000
     16 CHC        82.9550  169.7190   86.3690 C.2   601  HEM601      0.0000
     17 CHD        82.3080  165.8890   83.4600 C.2   601  HEM601      0.0000
     18 CMA        80.8930  173.8710   79.9910 C.3   601  HEM601      0.0000
     19 CMB        82.3550  174.6280   85.1920 C.3   601  HEM601      0.0000
     20 CMC        83.7190  167.2130   88.1550 C.3   601  HEM601      0.0000
     21 CMD        81.3370  164.0300   81.2180 C.3   601  HEM601      0.0000
     22 C1A        81.0920  170.1100   80.3410 C.ar  601  HEM601      0.0000
     23 C1B        82.2080  172.2180   83.9290 C.ar  601  HEM601      0.0000
     24 C1C        82.9240  168.4130   85.9090 C.ar  601  HEM601      0.0000
     25 C1D        81.8030  166.3690   82.2850 C.ar  601  HEM601      0.0000
     26 O1A        79.4790  171.1340   75.5420 O.co2 601  HEM601      0.0000
     27 O1D        77.3490  165.1820   77.1160 O.co2 601  HEM601      0.0000
     28 C2A        80.8130  171.3020   79.5760 C.ar  601  HEM601      0.0000
     29 C2B        82.4430  173.0840   85.1060 C.ar  601  HEM601      0.0000
     30 C2C        83.2770  167.2210   86.6830 C.ar  601  HEM601      0.0000
     31 C2D        81.3660  165.5330   81.1860 C.ar  601  HEM601      0.0000
     32 O2A        81.4290  171.7210   74.6890 O.co2 601  HEM601      0.0000
     33 O2D        79.2660  165.8060   76.2580 O.co2 601  HEM601      0.0000
     34 C3A        81.0470  172.3840   80.3430 C.ar  601  HEM601      0.0000
     35 C3B        82.7500  172.2410   86.0930 C.ar  601  HEM601      0.0000
     36 C3C        83.1090  166.1540   85.8610 C.ar  601  HEM601      0.0000
     37 C3D        80.9580  166.3220   80.1770 C.ar  601  HEM601      0.0000
     38 C4A        81.4840  171.8910   81.6350 C.ar  601  HEM601      0.0000
     39 C4B        82.7280  170.8620   85.6040 C.ar  601  HEM601      0.0000
     40 C4C        82.6440  166.6370   84.5780 C.ar  601  HEM601      0.0000
     41 C4D        81.1840  167.6880   80.5970 C.ar  601  HEM601      0.0000
     42 NC         82.5840  168.0050   84.6020 N.ar  601  HEM601      0.0000
     43 FE         81.8040  169.2700   83.1930 Fe    601  HEM601      0.0000
     44 HAA        79.7670  172.1180   77.9960 H     601  HEM601      0.0000
     45 HAAA       79.6620  170.5470   78.0390 H     601  HEM601      0.0000
     46 HAB        83.6840  172.0300   88.0180 H     601  HEM601      0.0000
     47 HAC        83.2340  164.4270   87.1830 H     601  HEM601      0.0000
     48 HAD        80.8730  166.4590   78.1190 H     601  HEM601      0.0000
     49 HADA       80.6980  164.9770   78.6320 H     601  HEM601      0.0000
     50 HBA        81.7770  170.3400   77.1480 H     601  HEM601      0.0000
     51 HBAA       81.9810  171.9080   77.2040 H     601  HEM601      0.0000
     52 HBB        82.9170  173.8240   89.1310 H     601  HEM601      0.0000
     53 HBBA       82.0350  174.2990   87.7830 H     601  HEM601      0.0000
     54 HBC        83.8630  162.8730   85.6290 H     601  HEM601      0.0000
     55 HBCA       83.8290  164.0570   84.4370 H     601  HEM601      0.0000
     56 HBD        78.5080  165.4510   79.2990 H     601  HEM601      0.0000
     57 HBDA       78.6810  166.9500   78.8180 H     601  HEM601      0.0000
     58 HHA        80.8600  168.6810   78.8910 H     601  HEM601      0.0000
     59 HHB        81.9880  173.6360   82.5320 H     601  HEM601      0.0000
     60 HHC        83.1800  169.8530   87.3130 H     601  HEM601      0.0000
     61 HHD        82.4470  164.9210   83.5190 H     601  HEM601      0.0000
     62 HMA        81.4780  174.0890   79.2350 H     601  HEM601      0.0000
     63 HMAA       81.1420  174.4170   80.7650 H     601  HEM601      0.0000
     64 HMAB       79.9620  174.0540   79.7470 H     601  HEM601      0.0000
     65 HMB        82.5620  174.9130   86.0960 H     601  HEM601      0.0000
     66 HMBA       81.4580  174.9140   84.9600 H     601  HEM601      0.0000
     67 HMBB       82.9900  175.0230   84.5750 H     601  HEM601      0.0000
     68 HMC        83.8950  166.3010   88.4350 H     601  HEM601      0.0000
     69 HMCA       83.0150  167.5900   88.7060 H     601  HEM601      0.0000
     70 HMCB       84.5250  167.7430   88.2540 H     601  HEM601      0.0000
     71 HMD        82.2430  163.6890   81.3750 H     601  HEM601      0.0000
     72 HMDA       81.0050  163.6910   80.3610 H     601  HEM601      0.0000
     73 HMDB       80.7460  163.7300   81.9390 H     601  HEM601      0.0000
@<TRIPOS>BOND
     1     1     6    1
     2     1    28    1
     3     1    44    1
     4     1    45    1
     5     2     7    2
     6     2    35    1
     7     2    46    1
     8     3     8    2
     9     3    36    1
    10     3    47    1
    11     4     9    1
    12     4    37    1
    13     4    48    1
    14     4    49    1
    15     5    22   ar
    16     5    38   ar
    17     6    11    1
    18     6    50    1
    19     6    51    1
    20     7    52    1
    21     7    53    1
    22     8    54    1
    23     8    55    1
    24     9    12    1
    25     9    56    1
    26     9    57    1
    27    10    23   ar
    28    10    39   ar
    29    11    26   ar
    30    11    32   ar
    31    12    27   ar
    32    12    33   ar
    33    13    25   ar
    34    13    41   ar
    35    14    22    2
    36    14    41    1
    37    14    58    1
    38    15    23    1
    39    15    38    2
    40    15    59    1
    41    16    24    1
    42    16    39    2
    43    16    60    1
    44    17    25    2
    45    17    40    1
    46    17    61    1
    47    18    34    1
    48    18    62    1
    49    18    63    1
    50    18    64    1
    51    19    29    1
    52    19    65    1
    53    19    66    1
    54    19    67    1
    55    20    30    1
    56    20    68    1
    57    20    69    1
    58    20    70    1
    59    21    31    1
    60    21    71    1
    61    21    72    1
    62    21    73    1
    63    22    28   ar
    64    23    29   ar
    65    24    30   ar
    66    24    42   ar
    67    25    31   ar
    68    28    34   ar
    69    29    35   ar
    70    30    36   ar
    71    31    37   ar
    72    34    38   ar
    73    35    39   ar
    74    36    40   ar
    75    37    41   ar
    76    40    42   ar
    77     5    43    1
    78    13    43    1
    79    43    10    1
    80    43    42    1
