@<TRIPOS>MOLECULE
MOL
   73    76     1     0     0
SMALL
resp


@<TRIPOS>ATOM
      1 C1           3.7860    -2.6970     0.0980 C.3        1 MOL       0.508186
      2 C2          -6.0580    -2.6940     0.4050 C.2        1 MOL      -0.200965
      3 C3          -3.8940     4.9140    -0.5100 C.2        1 MOL      -0.194769
      4 C4           3.8160     2.7160    -0.0360 C.3        1 MOL      -0.266426
      5 N1           0.2890    -1.4340     0.0530 N.ar       1 MOL      -0.534741
      6 C5           4.5230    -2.7440    -1.2030 C.3        1 MOL      -0.301247
      7 C6          -6.6860    -3.6550     1.0740 C.2        1 MOL      -0.290609
      8 C7          -3.0820     5.7220    -1.1590 C.2        1 MOL      -0.286048
      9 C8           4.4560     2.5790     1.3250 C.3        1 MOL      -0.195629
     10 N2          -2.5950    -1.4490     0.0590 N.ar       1 MOL      -0.327007
     11 C9           5.9840    -3.0560    -1.0380 C.2        1 MOL       0.846663
     12 C10          5.9370     2.7960     1.3270 C.2        1 MOL       0.885733
     13 N3           0.2960     1.4230    -0.1410 N.ar       1 MOL      -0.388966
     14 C11          2.2760    -0.0580    -0.1050 C.2        1 MOL      -0.502312
     15 C12         -1.1000    -3.4140     0.0720 C.2        1 MOL      -0.495967
     16 C13         -4.5410    -0.0560     0.0680 C.2        1 MOL      -0.164351
     17 C14         -1.0670     3.3690    -0.3470 C.2        1 MOL      -0.114669
     18 C15          1.5390    -4.9310     0.1840 C.3        1 MOL      -0.443267
     19 C16         -3.8600    -4.9530     0.4350 C.3        1 MOL      -0.361864
     20 C17         -6.0770     2.7110    -0.1870 C.3        1 MOL      -0.350691
     21 C18          1.5350     4.8830    -0.2090 C.3        1 MOL      -0.476616
     22 C19          1.6400    -1.2440    -0.0090 C.ar       1 MOL       0.477119
     23 C20         -2.3990    -2.7840     0.1290 C.ar       1 MOL       0.215026
     24 C21         -3.9110     1.2600    -0.0900 C.ar       1 MOL       0.091655
     25 C22          0.1120     2.7500    -0.2370 C.ar       1 MOL       0.006264
     26 O1           6.5390    -2.9120     0.0400 O.2        1 MOL      -0.798916
     27 O2           6.4980     3.1910     2.3380 O.2        1 MOL      -0.794497
     28 C23          2.2980    -2.4730     0.0220 C.ar       1 MOL      -0.370595
     29 C24         -3.6170    -3.4670     0.2830 C.ar       1 MOL       0.172341
     30 C25         -4.5910     2.4830    -0.2060 C.ar       1 MOL       0.068266
     31 C26          1.3350     3.4150    -0.2000 C.ar       1 MOL       0.167780
     32 O3           6.6670    -3.5830    -2.0710 O.2        1 MOL      -0.798916
     33 O4           6.6650     2.4660     0.2480 O.2        1 MOL      -0.794497
     34 C27          1.3180    -3.4470     0.0900 C.ar       1 MOL       0.133087
     35 C28         -4.5910    -2.4980     0.2730 C.ar       1 MOL       0.040547
     36 C29         -3.6250     3.4520    -0.3610 C.ar       1 MOL       0.053482
     37 C30          2.3150     2.4620    -0.1040 C.ar       1 MOL       0.082777
     38 C31          0.0930    -2.7830     0.0800 C.ar       1 MOL       0.389014
     39 C32         -3.9290    -1.2610     0.1140 C.ar       1 MOL       0.043821
     40 C33         -2.3930     2.7670    -0.3070 C.ar       1 MOL       0.167068
     41 C34          1.6360     1.2390    -0.1070 C.ar       1 MOL       0.345084
     42 N4          -2.5860     1.4470    -0.1380 N.ar       1 MOL      -0.273816
     43 Fe1         -1.1540    -0.0040    -0.0420 Fe         1 MOL       1.126061
     44 H1           4.0020    -3.6220     0.6230 H          1 MOL      -0.040930
     45 H2           4.2310    -1.9150     0.6980 H          1 MOL      -0.040930
     46 H3          -6.6850    -1.9840    -0.0480 H          1 MOL       0.162299
     47 H4          -4.7870     5.3620    -0.1170 H          1 MOL       0.190360
     48 H5           4.3130     2.0380    -0.7100 H          1 MOL       0.100048
     49 H6           4.0660     3.7080    -0.3950 H          1 MOL       0.100048
     50 H7           4.4010    -1.8010    -1.7130 H          1 MOL       0.022902
     51 H8           4.0520    -3.4980    -1.8240 H          1 MOL       0.022902
     52 H9          -7.7550    -3.6880     1.1130 H          1 MOL       0.173159
     53 H10         -6.1950    -4.3890     1.6350 H          1 MOL       0.173159
     54 H11         -3.2770     6.7630    -1.2680 H          1 MOL       0.167862
     55 H12         -2.2330     5.3570    -1.6420 H          1 MOL       0.167862
     56 H13          4.0050     3.2970     1.9950 H          1 MOL       0.054007
     57 H14          4.2380     1.5980     1.7150 H          1 MOL       0.054007
     58 H15          3.3410    -0.0260    -0.2440 H          1 MOL       0.367665
     59 H16         -1.1510    -4.4780    -0.0060 H          1 MOL       0.219262
     60 H17         -5.6000    -0.0180     0.1550 H          1 MOL       0.164094
     61 H18         -1.0380     4.4070    -0.4430 H          1 MOL       0.156303
     62 H19          2.0870    -5.3280    -0.6630 H          1 MOL       0.150800
     63 H20          0.6080    -5.4810     0.2230 H          1 MOL       0.150800
     64 H21          2.0860    -5.2230     1.0810 H          1 MOL       0.150800
     65 H22         -4.8900    -5.2400     0.5110 H          1 MOL       0.124680
     66 H23         -3.3930    -5.3700     1.3200 H          1 MOL       0.124680
     67 H24         -3.5330    -5.5350    -0.4100 H          1 MOL       0.124680
     68 H25         -6.3600     3.7550    -0.3110 H          1 MOL       0.126362
     69 H26         -6.5190     2.3920     0.7500 H          1 MOL       0.126362
     70 H27         -6.5920     2.1700    -0.9750 H          1 MOL       0.126362
     71 H28          1.1200     5.3180    -1.1050 H          1 MOL       0.162600
     72 H29          2.5750     5.1670    -0.1600 H          1 MOL       0.162600
     73 H30          1.0450     5.3440     0.6440 H          1 MOL       0.162600
@<TRIPOS>BOND
     1     1     6 1   
     2     1    28 1   
     3     1    44 1   
     4     1    45 1   
     5     2     7 2   
     6     2    35 1   
     7     2    46 1   
     8     3     8 2   
     9     3    36 1   
    10     3    47 1   
    11     4     9 1   
    12     4    37 1   
    13     4    48 1   
    14     4    49 1   
    15     5    22 1   
    16     5    38 2   
    17     6    11 1   
    18     6    50 1   
    19     6    51 1   
    20     7    52 1   
    21     7    53 1   
    22     8    54 1   
    23     8    55 1   
    24     9    12 1   
    25     9    56 1   
    26     9    57 1   
    27    10    23 1   
    28    10    39 2   
    29    11    26 1   
    30    11    32 1   
    31    12    27 1   
    32    12    33 1   
    33    13    25 1   
    34    13    41 2   
    35    14    22 2   
    36    14    41 1   
    37    14    58 1   
    38    15    23 2   
    39    15    38 1   
    40    15    59 1   
    41    16    24 2   
    42    16    39 1   
    43    16    60 1   
    44    17    25 2   
    45    17    40 1   
    46    17    61 1   
    47    18    34 1   
    48    18    62 1   
    49    18    63 1   
    50    18    64 1   
    51    19    29 1   
    52    19    65 1   
    53    19    66 1   
    54    19    67 1   
    55    20    30 1   
    56    20    68 1   
    57    20    69 1   
    58    20    70 1   
    59    21    31 1   
    60    21    71 1   
    61    21    72 1   
    62    21    73 1   
    63    22    28 1   
    64    23    29 1   
    65    24    30 1   
    66    24    42 1   
    67    25    31 1   
    68    28    34 2   
    69    29    35 2   
    70    30    36 2   
    71    31    37 2   
    72    34    38 1   
    73    35    39 1   
    74    36    40 1   
    75    37    41 1   
    76    40    42 2   
@<TRIPOS>SUBSTRUCTURE
     1 MOL         1 TEMP              0 ****  ****    0 ROOT
