@<TRIPOS>MOLECULE
*****
 80 83 0 0 0
SMALL
GASTEIGER

@<TRIPOS>ATOM
      1 O           1.6213   -2.9301   -1.6040 O.2     1  LIG1       -0.2968
      2 O           6.2349    1.0288   -0.3956 O.3     1  LIG1       -0.3909
      3 C          -0.1893   -0.3592    1.1409 C.3     1  LIG1       -0.0220
      4 C          -0.9564   -1.4357    0.2911 C.3     1  LIG1       -0.0166
      5 C           1.2310   -0.9086    1.4814 C.3     1  LIG1       -0.0190
      6 C           2.0665   -1.3709    0.2250 C.3     1  LIG1        0.0363
      7 C          -2.3845   -0.8368    0.2676 C.3     1  LIG1       -0.0321
      8 C          -1.1572   -0.2099    2.3367 C.3     1  LIG1       -0.0465
      9 C          -0.2619   -1.5800   -1.0595 C.3     1  LIG1        0.0126
     10 C          -2.5705   -0.3176    1.7164 C.3     1  LIG1       -0.0489
     11 C           2.8200   -0.1777   -0.4901 C.3     1  LIG1       -0.0069
     12 C           1.1716   -2.0585   -0.8537 C.2     1  LIG1        0.1406
     13 C           2.0691   -0.0151    2.4132 C.3     1  LIG1       -0.0302
     14 C          -0.1208    1.0563    0.4893 C.3     1  LIG1       -0.0588
     15 C          -1.0221   -2.8610    0.9353 C.3     1  LIG1       -0.0584
     16 C          -3.5213   -1.7509   -0.1753 C.3     1  LIG1       -0.0402
     17 C           3.2664    0.9709    0.4210 C.2     1  LIG1       -0.0614
     18 C           3.0664   -2.4465    0.7400 C.3     1  LIG1       -0.0520
     19 C           4.0154   -0.6630   -1.3462 C.3     1  LIG1       -0.0432
     20 C           2.9400    0.9846    1.7264 C.2     1  LIG1       -0.0836
     21 C           4.0389    2.1301   -0.2579 C.3     1  LIG1        0.0123
     22 C           4.6821    0.4725   -2.1181 C.3     1  LIG1       -0.0255
     23 C           5.1648    1.5715   -1.1747 C.3     1  LIG1        0.0640
     24 C          -4.8665   -0.9972   -0.0895 C.3     1  LIG1       -0.0467
     25 C          -3.2457   -2.2771   -1.5870 C.3     1  LIG1       -0.0621
     26 C           4.6725    3.1337    0.7409 C.3     1  LIG1       -0.0537
     27 C           3.0356    2.9479   -1.1088 C.3     1  LIG1       -0.0537
     28 C          -4.9951    0.2364   -0.9942 C.3     1  LIG1       -0.0343
     29 C          -6.3500    0.8817   -0.9067 C.2     1  LIG1       -0.0853
     30 C          -6.6653    2.1041   -0.4383 C.2     1  LIG1       -0.0796
     31 C          -5.6928    3.1050    0.1175 C.3     1  LIG1       -0.0440
     32 C          -8.0971    2.5723   -0.4432 C.3     1  LIG1       -0.0440
     33 H           1.0439   -1.7986    2.0975 H       1  LIG1        0.0319
     34 H          -2.3629    0.0207   -0.4137 H       1  LIG1        0.0309
     35 H          -1.0354    0.7369    2.8743 H       1  LIG1        0.0271
     36 H          -1.0106   -1.0091    3.0726 H       1  LIG1        0.0271
     37 H          -0.2439   -0.6514   -1.6361 H       1  LIG1        0.0347
     38 H          -0.7292   -2.3319   -1.6955 H       1  LIG1        0.0347
     39 H          -3.1795   -0.9912    2.3299 H       1  LIG1        0.0268
     40 H          -3.0647    0.6606    1.7107 H       1  LIG1        0.0268
     41 H           2.1150    0.2549   -1.2090 H       1  LIG1        0.0355
     42 H           2.7191   -0.6435    3.0356 H       1  LIG1        0.0311
     43 H           1.4117    0.5109    3.1149 H       1  LIG1        0.0311
     44 H           0.3629    1.0635   -0.4850 H       1  LIG1        0.0235
     45 H           0.4095    1.7623    1.1358 H       1  LIG1        0.0235
     46 H          -1.1064    1.5085    0.3399 H       1  LIG1        0.0235
     47 H          -1.5488   -2.8664    1.8943 H       1  LIG1        0.0235
     48 H          -0.0353   -3.2957    1.1154 H       1  LIG1        0.0235
     49 H          -1.5336   -3.5776    0.2861 H       1  LIG1        0.0235
     50 H          -3.6142   -2.6118    0.4979 H       1  LIG1        0.0301
     51 H           2.5420   -3.2405    1.2851 H       1  LIG1        0.0239
     52 H           3.5996   -2.9510   -0.0728 H       1  LIG1        0.0239
     53 H           3.8160   -2.0168    1.4122 H       1  LIG1        0.0239
     54 H           3.6840   -1.4164   -2.0691 H       1  LIG1        0.0272
     55 H           4.7763   -1.1375   -0.7152 H       1  LIG1        0.0272
     56 H           3.2653    1.7957    2.3697 H       1  LIG1        0.0572
     57 H           3.9844    0.8779   -2.8591 H       1  LIG1        0.0290
     58 H           5.5316    0.0591   -2.6755 H       1  LIG1        0.0290
     59 H           5.5937    2.3881   -1.7689 H       1  LIG1        0.0602
     60 H          -5.0721   -0.7071    0.9482 H       1  LIG1        0.0271
     61 H          -5.6655   -1.7049   -0.3519 H       1  LIG1        0.0271
     62 H          -4.1781   -2.6353   -2.0403 H       1  LIG1        0.0233
     63 H          -2.8445   -1.5067   -2.2529 H       1  LIG1        0.0233
     64 H          -2.5847   -3.1455   -1.5804 H       1  LIG1        0.0233
     65 H           5.2713    3.8841    0.2106 H       1  LIG1        0.0239
     66 H           5.3358    2.6337    1.4557 H       1  LIG1        0.0239
     67 H           3.9109    3.6802    1.3093 H       1  LIG1        0.0239
     68 H           3.5377    3.7843   -1.6094 H       1  LIG1        0.0239
     69 H           2.2403    3.3696   -0.4822 H       1  LIG1        0.0239
     70 H           2.5499    2.3524   -1.8874 H       1  LIG1        0.0239
     71 H          -4.8430   -0.0571   -2.0397 H       1  LIG1        0.0307
     72 H          -4.2107    0.9600   -0.7692 H       1  LIG1        0.0307
     73 H           6.9379    0.7558   -1.0094 H       1  LIG1        0.2098
     74 H          -7.1598    0.2571   -1.2831 H       1  LIG1        0.0571
     75 H          -5.6615    3.9934   -0.5218 H       1  LIG1        0.0274
     76 H          -4.6737    2.7246    0.2083 H       1  LIG1        0.0274
     77 H          -6.0059    3.4148    1.1205 H       1  LIG1        0.0274
     78 H          -8.1952    3.4834   -1.0427 H       1  LIG1        0.0274
     79 H          -8.4283    2.7900    0.5776 H       1  LIG1        0.0274
     80 H          -8.7803    1.8255   -0.8612 H       1  LIG1        0.0274
@<TRIPOS>BOND
     1     1    12    2
     2     2    23    1
     3     2    73    1
     4     3     4    1
     5     3     5    1
     6     3     8    1
     7     3    14    1
     8     4     7    1
     9     4     9    1
    10     4    15    1
    11     5     6    1
    12     5    13    1
    13     5    33    1
    14     6    11    1
    15     6    12    1
    16     6    18    1
    17     7    10    1
    18     7    16    1
    19     7    34    1
    20     8    10    1
    21     8    35    1
    22     8    36    1
    23     9    12    1
    24     9    37    1
    25     9    38    1
    26    10    39    1
    27    10    40    1
    28    11    17    1
    29    11    19    1
    30    11    41    1
    31    13    20    1
    32    13    42    1
    33    13    43    1
    34    14    44    1
    35    14    45    1
    36    14    46    1
    37    15    47    1
    38    15    48    1
    39    15    49    1
    40    16    24    1
    41    16    25    1
    42    16    50    1
    43    17    20    2
    44    17    21    1
    45    18    51    1
    46    18    52    1
    47    18    53    1
    48    19    22    1
    49    19    54    1
    50    19    55    1
    51    20    56    1
    52    21    23    1
    53    21    26    1
    54    21    27    1
    55    22    23    1
    56    22    57    1
    57    22    58    1
    58    23    59    1
    59    24    28    1
    60    24    60    1
    61    24    61    1
    62    25    62    1
    63    25    63    1
    64    25    64    1
    65    26    65    1
    66    26    66    1
    67    26    67    1
    68    27    68    1
    69    27    69    1
    70    27    70    1
    71    28    29    1
    72    28    71    1
    73    28    72    1
    74    29    30    2
    75    29    74    1
    76    30    31    1
    77    30    32    1
    78    31    75    1
    79    31    76    1
    80    31    77    1
    81    32    78    1
    82    32    79    1
    83    32    80    1
