@<TRIPOS>MOLECULE
*****
 82 85 0 0 0
SMALL
GASTEIGER

@<TRIPOS>ATOM
      1 O          -1.7675   -2.2716    2.1699 O.3     1  LIG1       -0.3912
      2 O          -6.1848    1.2418    0.2386 O.3     1  LIG1       -0.3909
      3 C           0.1741   -0.4584   -1.1378 C.3     1  LIG1       -0.0226
      4 C           0.9734   -1.5158   -0.2951 C.3     1  LIG1       -0.0210
      5 C          -1.2501   -1.0266   -1.4543 C.3     1  LIG1       -0.0234
      6 C          -2.0816   -1.4561   -0.1702 C.3     1  LIG1        0.0040
      7 C           2.3861   -0.8807   -0.2734 C.3     1  LIG1       -0.0324
      8 C           0.2740   -1.6779    1.0560 C.3     1  LIG1       -0.0201
      9 C           1.1299   -0.2943   -2.3410 C.3     1  LIG1       -0.0466
     10 C          -1.1621   -2.2156    0.8796 C.3     1  LIG1        0.0619
     11 C          -2.8428   -0.2215    0.5004 C.3     1  LIG1       -0.0112
     12 C           2.5502   -0.3538   -1.7241 C.3     1  LIG1       -0.0489
     13 C          -2.0912   -0.1629   -2.4095 C.3     1  LIG1       -0.0305
     14 C           0.0972    0.9584   -0.4869 C.3     1  LIG1       -0.0588
     15 C           1.0886   -2.9316   -0.9551 C.3     1  LIG1       -0.0587
     16 C           3.5467   -1.7683    0.1629 C.3     1  LIG1       -0.0403
     17 C          -3.2145    0.9366   -0.4407 C.2     1  LIG1       -0.0617
     18 C          -3.1313   -2.5045   -0.6588 C.3     1  LIG1       -0.0564
     19 C          -4.1268   -0.6300    1.2740 C.3     1  LIG1       -0.0435
     20 C          -2.9017    0.8993   -1.7484 C.2     1  LIG1       -0.0836
     21 C          -3.9214    2.1538    0.2113 C.3     1  LIG1        0.0123
     22 C          -4.7484    0.5403    2.0336 C.3     1  LIG1       -0.0255
     23 C          -5.1153    1.6776    1.0836 C.3     1  LIG1        0.0640
     24 C           4.8730   -0.9827    0.0710 C.3     1  LIG1       -0.0467
     25 C           3.2906   -2.3021    1.5753 C.3     1  LIG1       -0.0621
     26 C          -2.8955    2.9055    1.0945 C.3     1  LIG1       -0.0537
     27 C          -4.4569    3.1960   -0.8066 C.3     1  LIG1       -0.0537
     28 C           4.9764    0.2527    0.9765 C.3     1  LIG1       -0.0343
     29 C           6.3150    0.9304    0.8831 C.2     1  LIG1       -0.0853
     30 C           6.5986    2.1606    0.4144 C.2     1  LIG1       -0.0796
     31 C           8.0186    2.6631    0.4127 C.3     1  LIG1       -0.0440
     32 C           5.5996    3.1385   -0.1355 C.3     1  LIG1       -0.0440
     33 H          -1.0710   -1.9347   -2.0438 H       1  LIG1        0.0315
     34 H           2.3473   -0.0273    0.4118 H       1  LIG1        0.0309
     35 H           0.2589   -0.7432    1.6272 H       1  LIG1        0.0296
     36 H           0.7837   -2.3841    1.7126 H       1  LIG1        0.0296
     37 H           1.0016   -1.1060   -3.0664 H       1  LIG1        0.0271
     38 H           0.9791    0.6430   -2.8880 H       1  LIG1        0.0271
     39 H          -1.0851   -3.2628    0.5632 H       1  LIG1        0.0599
     40 H          -2.1549    0.1901    1.2467 H       1  LIG1        0.0352
     41 H           3.1806   -1.0045   -2.3406 H       1  LIG1        0.0268
     42 H           3.0102    0.6409   -1.7181 H       1  LIG1        0.0268
     43 H          -2.7789   -0.8008   -2.9789 H       1  LIG1        0.0310
     44 H          -1.4392    0.3041   -3.1566 H       1  LIG1        0.0310
     45 H          -0.4356    1.6608   -1.1345 H       1  LIG1        0.0235
     46 H           1.0776    1.4219   -0.3392 H       1  LIG1        0.0235
     47 H          -0.3833    0.9611    0.4890 H       1  LIG1        0.0235
     48 H           1.6844   -2.9229   -1.8732 H       1  LIG1        0.0235
     49 H           0.1246   -3.3683   -1.2236 H       1  LIG1        0.0235
     50 H           1.5565   -3.6533   -0.2787 H       1  LIG1        0.0235
     51 H           3.6576   -2.6269   -0.5104 H       1  LIG1        0.0301
     52 H          -2.6511   -3.3050   -1.2340 H       1  LIG1        0.0236
     53 H          -3.8930   -2.0530   -1.3024 H       1  LIG1        0.0236
     54 H          -3.6409   -2.9927    0.1790 H       1  LIG1        0.0236
     55 H          -3.9247   -1.4229    1.9979 H       1  LIG1        0.0272
     56 H          -4.8808   -1.0269    0.5830 H       1  LIG1        0.0272
     57 H          -3.1860    1.7104   -2.4106 H       1  LIG1        0.0572
     58 H          -5.6492    0.1804    2.5457 H       1  LIG1        0.0290
     59 H          -4.0582    0.8897    2.8092 H       1  LIG1        0.0290
     60 H          -5.5042    2.5195    1.6700 H       1  LIG1        0.0602
     61 H          -1.2032   -2.8199    2.7411 H       1  LIG1        0.2098
     62 H           5.0662   -0.6866   -0.9673 H       1  LIG1        0.0271
     63 H           5.6900   -1.6713    0.3287 H       1  LIG1        0.0271
     64 H           4.2324   -2.6437    2.0219 H       1  LIG1        0.0233
     65 H           2.8791   -1.5406    2.2452 H       1  LIG1        0.0233
     66 H           2.6452   -3.1823    1.5700 H       1  LIG1        0.0233
     67 H          -3.3545    3.7817    1.5676 H       1  LIG1        0.0239
     68 H          -2.0481    3.2617    0.4965 H       1  LIG1        0.0239
     69 H          -2.4871    2.2862    1.8983 H       1  LIG1        0.0239
     70 H          -5.0117    3.9914   -0.2943 H       1  LIG1        0.0239
     71 H          -5.1356    2.7456   -1.5396 H       1  LIG1        0.0239
     72 H          -3.6413    3.6810   -1.3559 H       1  LIG1        0.0239
     73 H           4.8365   -0.0452    2.0224 H       1  LIG1        0.0307
     74 H           4.1738    0.9575    0.7561 H       1  LIG1        0.0307
     75 H          -6.9303    0.9949    0.8120 H       1  LIG1        0.2098
     76 H           7.1414    0.3251    1.2548 H       1  LIG1        0.0571
     77 H           8.7216    1.9325    0.8266 H       1  LIG1        0.0274
     78 H           8.3394    2.8896   -0.6094 H       1  LIG1        0.0274
     79 H           8.0978    3.5757    1.0127 H       1  LIG1        0.0274
     80 H           5.9003    3.4566   -1.1397 H       1  LIG1        0.0274
     81 H           4.5895    2.7337   -0.2217 H       1  LIG1        0.0274
     82 H           5.5501    4.0252    0.5049 H       1  LIG1        0.0274
@<TRIPOS>BOND
     1     1    10    1
     2     1    61    1
     3     2    23    1
     4     2    75    1
     5     3     4    1
     6     3     5    1
     7     3     9    1
     8     3    14    1
     9     4     7    1
    10     4     8    1
    11     4    15    1
    12     5     6    1
    13     5    13    1
    14     5    33    1
    15     6    10    1
    16     6    11    1
    17     6    18    1
    18     7    12    1
    19     7    16    1
    20     7    34    1
    21     8    10    1
    22     8    35    1
    23     8    36    1
    24     9    12    1
    25     9    37    1
    26     9    38    1
    27    10    39    1
    28    11    17    1
    29    11    19    1
    30    11    40    1
    31    12    41    1
    32    12    42    1
    33    13    20    1
    34    13    43    1
    35    13    44    1
    36    14    45    1
    37    14    46    1
    38    14    47    1
    39    15    48    1
    40    15    49    1
    41    15    50    1
    42    16    24    1
    43    16    25    1
    44    16    51    1
    45    17    20    2
    46    17    21    1
    47    18    52    1
    48    18    53    1
    49    18    54    1
    50    19    22    1
    51    19    55    1
    52    19    56    1
    53    20    57    1
    54    21    23    1
    55    21    26    1
    56    21    27    1
    57    22    23    1
    58    22    58    1
    59    22    59    1
    60    23    60    1
    61    24    28    1
    62    24    62    1
    63    24    63    1
    64    25    64    1
    65    25    65    1
    66    25    66    1
    67    26    67    1
    68    26    68    1
    69    26    69    1
    70    27    70    1
    71    27    71    1
    72    27    72    1
    73    28    29    1
    74    28    73    1
    75    28    74    1
    76    29    30    2
    77    29    76    1
    78    30    31    1
    79    30    32    1
    80    31    77    1
    81    31    78    1
    82    31    79    1
    83    32    80    1
    84    32    81    1
    85    32    82    1
