131801253
  -OEChem-06302103273D

 82 85  0     1  0  0  0  0  0999 V2000
   -1.7675   -2.2716    2.1699 O   0  0  0  0  0  0  0  0  0  0  0  0
   -6.1848    1.2418    0.2386 O   0  0  0  0  0  0  0  0  0  0  0  0
    0.1741   -0.4584   -1.1378 C   0  0  2  0  0  0  0  0  0  0  0  0
    0.9734   -1.5158   -0.2951 C   0  0  1  0  0  0  0  0  0  0  0  0
   -1.2501   -1.0266   -1.4543 C   0  0  1  0  0  0  0  0  0  0  0  0
   -2.0816   -1.4561   -0.1702 C   0  0  1  0  0  0  0  0  0  0  0  0
    2.3861   -0.8807   -0.2734 C   0  0  2  0  0  0  0  0  0  0  0  0
    0.2740   -1.6779    1.0560 C   0  0  0  0  0  0  0  0  0  0  0  0
    1.1299   -0.2943   -2.3410 C   0  0  0  0  0  0  0  0  0  0  0  0
   -1.1621   -2.2156    0.8796 C   0  0  1  0  0  0  0  0  0  0  0  0
   -2.8428   -0.2215    0.5004 C   0  0  1  0  0  0  0  0  0  0  0  0
    2.5502   -0.3538   -1.7241 C   0  0  0  0  0  0  0  0  0  0  0  0
   -2.0912   -0.1629   -2.4095 C   0  0  0  0  0  0  0  0  0  0  0  0
    0.0972    0.9584   -0.4869 C   0  0  0  0  0  0  0  0  0  0  0  0
    1.0886   -2.9316   -0.9551 C   0  0  0  0  0  0  0  0  0  0  0  0
    3.5467   -1.7683    0.1629 C   0  0  1  0  0  0  0  0  0  0  0  0
   -3.2145    0.9366   -0.4407 C   0  0  0  0  0  0  0  0  0  0  0  0
   -3.1313   -2.5045   -0.6588 C   0  0  0  0  0  0  0  0  0  0  0  0
   -4.1268   -0.6300    1.2740 C   0  0  0  0  0  0  0  0  0  0  0  0
   -2.9017    0.8993   -1.7484 C   0  0  0  0  0  0  0  0  0  0  0  0
   -3.9214    2.1538    0.2113 C   0  0  0  0  0  0  0  0  0  0  0  0
   -4.7484    0.5403    2.0336 C   0  0  0  0  0  0  0  0  0  0  0  0
   -5.1153    1.6776    1.0836 C   0  0  2  0  0  0  0  0  0  0  0  0
    4.8730   -0.9827    0.0710 C   0  0  0  0  0  0  0  0  0  0  0  0
    3.2906   -2.3021    1.5753 C   0  0  0  0  0  0  0  0  0  0  0  0
   -2.8955    2.9055    1.0945 C   0  0  0  0  0  0  0  0  0  0  0  0
   -4.4569    3.1960   -0.8066 C   0  0  0  0  0  0  0  0  0  0  0  0
    4.9764    0.2527    0.9765 C   0  0  0  0  0  0  0  0  0  0  0  0
    6.3150    0.9304    0.8831 C   0  0  0  0  0  0  0  0  0  0  0  0
    6.5986    2.1606    0.4144 C   0  0  0  0  0  0  0  0  0  0  0  0
    8.0186    2.6631    0.4127 C   0  0  0  0  0  0  0  0  0  0  0  0
    5.5996    3.1385   -0.1355 C   0  0  0  0  0  0  0  0  0  0  0  0
   -1.0710   -1.9347   -2.0438 H   0  0  0  0  0  0  0  0  0  0  0  0
    2.3473   -0.0273    0.4118 H   0  0  0  0  0  0  0  0  0  0  0  0
    0.2589   -0.7432    1.6272 H   0  0  0  0  0  0  0  0  0  0  0  0
    0.7837   -2.3841    1.7126 H   0  0  0  0  0  0  0  0  0  0  0  0
    1.0016   -1.1060   -3.0664 H   0  0  0  0  0  0  0  0  0  0  0  0
    0.9791    0.6430   -2.8880 H   0  0  0  0  0  0  0  0  0  0  0  0
   -1.0851   -3.2628    0.5632 H   0  0  0  0  0  0  0  0  0  0  0  0
   -2.1549    0.1901    1.2467 H   0  0  0  0  0  0  0  0  0  0  0  0
    3.1806   -1.0045   -2.3406 H   0  0  0  0  0  0  0  0  0  0  0  0
    3.0102    0.6409   -1.7181 H   0  0  0  0  0  0  0  0  0  0  0  0
   -2.7789   -0.8008   -2.9789 H   0  0  0  0  0  0  0  0  0  0  0  0
   -1.4392    0.3041   -3.1566 H   0  0  0  0  0  0  0  0  0  0  0  0
   -0.4356    1.6608   -1.1345 H   0  0  0  0  0  0  0  0  0  0  0  0
    1.0776    1.4219   -0.3392 H   0  0  0  0  0  0  0  0  0  0  0  0
   -0.3833    0.9611    0.4890 H   0  0  0  0  0  0  0  0  0  0  0  0
    1.6844   -2.9229   -1.8732 H   0  0  0  0  0  0  0  0  0  0  0  0
    0.1246   -3.3683   -1.2236 H   0  0  0  0  0  0  0  0  0  0  0  0
    1.5565   -3.6533   -0.2787 H   0  0  0  0  0  0  0  0  0  0  0  0
    3.6576   -2.6269   -0.5104 H   0  0  0  0  0  0  0  0  0  0  0  0
   -2.6511   -3.3050   -1.2340 H   0  0  0  0  0  0  0  0  0  0  0  0
   -3.8930   -2.0530   -1.3024 H   0  0  0  0  0  0  0  0  0  0  0  0
   -3.6409   -2.9927    0.1790 H   0  0  0  0  0  0  0  0  0  0  0  0
   -3.9247   -1.4229    1.9979 H   0  0  0  0  0  0  0  0  0  0  0  0
   -4.8808   -1.0269    0.5830 H   0  0  0  0  0  0  0  0  0  0  0  0
   -3.1860    1.7104   -2.4106 H   0  0  0  0  0  0  0  0  0  0  0  0
   -5.6492    0.1804    2.5457 H   0  0  0  0  0  0  0  0  0  0  0  0
   -4.0582    0.8897    2.8092 H   0  0  0  0  0  0  0  0  0  0  0  0
   -5.5042    2.5195    1.6700 H   0  0  0  0  0  0  0  0  0  0  0  0
   -1.2032   -2.8199    2.7411 H   0  0  0  0  0  0  0  0  0  0  0  0
    5.0662   -0.6866   -0.9673 H   0  0  0  0  0  0  0  0  0  0  0  0
    5.6900   -1.6713    0.3287 H   0  0  0  0  0  0  0  0  0  0  0  0
    4.2324   -2.6437    2.0219 H   0  0  0  0  0  0  0  0  0  0  0  0
    2.8791   -1.5406    2.2452 H   0  0  0  0  0  0  0  0  0  0  0  0
    2.6452   -3.1823    1.5700 H   0  0  0  0  0  0  0  0  0  0  0  0
   -3.3545    3.7817    1.5676 H   0  0  0  0  0  0  0  0  0  0  0  0
   -2.0481    3.2617    0.4965 H   0  0  0  0  0  0  0  0  0  0  0  0
   -2.4871    2.2862    1.8983 H   0  0  0  0  0  0  0  0  0  0  0  0
   -5.0117    3.9914   -0.2943 H   0  0  0  0  0  0  0  0  0  0  0  0
   -5.1356    2.7456   -1.5396 H   0  0  0  0  0  0  0  0  0  0  0  0
   -3.6413    3.6810   -1.3559 H   0  0  0  0  0  0  0  0  0  0  0  0
    4.8365   -0.0452    2.0224 H   0  0  0  0  0  0  0  0  0  0  0  0
    4.1738    0.9575    0.7561 H   0  0  0  0  0  0  0  0  0  0  0  0
   -6.9303    0.9949    0.8120 H   0  0  0  0  0  0  0  0  0  0  0  0
    7.1414    0.3251    1.2548 H   0  0  0  0  0  0  0  0  0  0  0  0
    8.7216    1.9325    0.8266 H   0  0  0  0  0  0  0  0  0  0  0  0
    8.3394    2.8896   -0.6094 H   0  0  0  0  0  0  0  0  0  0  0  0
    8.0978    3.5757    1.0127 H   0  0  0  0  0  0  0  0  0  0  0  0
    5.9003    3.4566   -1.1397 H   0  0  0  0  0  0  0  0  0  0  0  0
    4.5895    2.7337   -0.2217 H   0  0  0  0  0  0  0  0  0  0  0  0
    5.5501    4.0252    0.5049 H   0  0  0  0  0  0  0  0  0  0  0  0
  1 10  1  0  0  0  0
  1 61  1  0  0  0  0
  2 23  1  0  0  0  0
  2 75  1  0  0  0  0
  3  4  1  0  0  0  0
  3  5  1  0  0  0  0
  3  9  1  0  0  0  0
  3 14  1  0  0  0  0
  4  7  1  0  0  0  0
  4  8  1  0  0  0  0
  4 15  1  0  0  0  0
  5  6  1  0  0  0  0
  5 13  1  0  0  0  0
  5 33  1  0  0  0  0
  6 10  1  0  0  0  0
  6 11  1  0  0  0  0
  6 18  1  0  0  0  0
  7 12  1  0  0  0  0
  7 16  1  0  0  0  0
  7 34  1  0  0  0  0
  8 10  1  0  0  0  0
  8 35  1  0  0  0  0
  8 36  1  0  0  0  0
  9 12  1  0  0  0  0
  9 37  1  0  0  0  0
  9 38  1  0  0  0  0
 10 39  1  0  0  0  0
 11 17  1  0  0  0  0
 11 19  1  0  0  0  0
 11 40  1  0  0  0  0
 12 41  1  0  0  0  0
 12 42  1  0  0  0  0
 13 20  1  0  0  0  0
 13 43  1  0  0  0  0
 13 44  1  0  0  0  0
 14 45  1  0  0  0  0
 14 46  1  0  0  0  0
 14 47  1  0  0  0  0
 15 48  1  0  0  0  0
 15 49  1  0  0  0  0
 15 50  1  0  0  0  0
 16 24  1  0  0  0  0
 16 25  1  0  0  0  0
 16 51  1  0  0  0  0
 17 20  2  0  0  0  0
 17 21  1  0  0  0  0
 18 52  1  0  0  0  0
 18 53  1  0  0  0  0
 18 54  1  0  0  0  0
 19 22  1  0  0  0  0
 19 55  1  0  0  0  0
 19 56  1  0  0  0  0
 20 57  1  0  0  0  0
 21 23  1  0  0  0  0
 21 26  1  0  0  0  0
 21 27  1  0  0  0  0
 22 23  1  0  0  0  0
 22 58  1  0  0  0  0
 22 59  1  0  0  0  0
 23 60  1  0  0  0  0
 24 28  1  0  0  0  0
 24 62  1  0  0  0  0
 24 63  1  0  0  0  0
 25 64  1  0  0  0  0
 25 65  1  0  0  0  0
 25 66  1  0  0  0  0
 26 67  1  0  0  0  0
 26 68  1  0  0  0  0
 26 69  1  0  0  0  0
 27 70  1  0  0  0  0
 27 71  1  0  0  0  0
 27 72  1  0  0  0  0
 28 29  1  0  0  0  0
 28 73  1  0  0  0  0
 28 74  1  0  0  0  0
 29 30  2  0  0  0  0
 29 76  1  0  0  0  0
 30 31  1  0  0  0  0
 30 32  1  0  0  0  0
 31 77  1  0  0  0  0
 31 78  1  0  0  0  0
 31 79  1  0  0  0  0
 32 80  1  0  0  0  0
 32 81  1  0  0  0  0
 32 82  1  0  0  0  0
M  END
> <PUBCHEM_COMPOUND_CID>
131801253

> <PUBCHEM_CONFORMER_RMSD>
0.8

> <PUBCHEM_CONFORMER_DIVERSEORDER>
5
27
7
19
18
10
24
25
1
14
21
28
3
16
22
26
20
6
9
23
15
4
8
12
29
2
11
13
17

> <PUBCHEM_MMFF94_PARTIAL_CHARGES>
18
1 -0.68
10 0.28
11 0.14
13 0.14
17 -0.28
2 -0.68
20 -0.29
21 0.14
23 0.28
28 0.14
29 -0.29
30 -0.28
31 0.14
32 0.14
57 0.15
61 0.4
75 0.4
76 0.15

> <PUBCHEM_EFFECTIVE_ROTOR_COUNT>
6

> <PUBCHEM_PHARMACOPHORE_FEATURES>
12
1 1 acceptor
1 1 donor
1 2 acceptor
1 2 donor
1 25 hydrophobe
3 21 26 27 hydrophobe
3 30 31 32 hydrophobe
4 16 24 28 29 hydrophobe
5 3 4 7 9 12 rings
6 11 17 19 21 22 23 rings
6 3 4 5 6 8 10 rings
6 5 6 11 13 17 20 rings

> <PUBCHEM_HEAVY_ATOM_COUNT>
32

> <PUBCHEM_ATOM_DEF_STEREO_COUNT>
9

> <PUBCHEM_ATOM_UDEF_STEREO_COUNT>
0

> <PUBCHEM_BOND_DEF_STEREO_COUNT>
0

> <PUBCHEM_BOND_UDEF_STEREO_COUNT>
0

> <PUBCHEM_ISOTOPIC_ATOM_COUNT>
0

> <PUBCHEM_COMPONENT_COUNT>
1

> <PUBCHEM_CACTVS_TAUTO_COUNT>
1

> <PUBCHEM_CONFORMER_ID>
07DB20A500000005

> <PUBCHEM_MMFF94_ENERGY>
133.5223

> <PUBCHEM_FEATURE_SELFOVERLAP>
61.009

> <PUBCHEM_SHAPE_FINGERPRINT>
10 15 18260831505429197480
10554248 39 16486986055554876964
10930396 42 17240472641895568877
11135609 201 18272651289850493522
11393246 34 8790615814241730528
11578080 2 17560533840557514095
12422481 6 16951414200127461915
12596602 18 18334013852416954547
12633257 1 15502958340897815907
12760667 363 11746937594301577417
13782708 43 12107796232495529753
13911987 19 16702026386966325186
14020679 6 17749391516133588720
14251751 18 8142088671965573288
14739800 52 18412542102976863000
14790565 3 18339922731759602484
14840074 17 17775286045163979801
14848178 5 11097854090826105072
14951699 99 18335428976023266060
15163728 17 17846782897261986070
15183329 4 13686311184066737908
15510800 12 11747206923686048536
15840311 113 18409452444721044116
17980427 23 18260828249975700550
1813 80 13840848582010599719
18393751 57 18334018302388727507
19377110 9 17822297932857599838
20511986 3 17895187745718443465
20775438 99 9509164173179613696
21033648 29 17458898232707394700
21756936 100 18129376159208345764
22122407 14 18270683185955210256
22393880 68 11815319460954196619
23379529 103 10518255353669856173
23559900 14 18047493143969803174
23569914 152 10373936626661001864
2838139 119 17489577923264345768
392239 28 18041266734808254536
4258327 124 18059847368689427525
474113 269 14056996144386950257
484985 159 10881673603456264937
5104073 3 17967805042957532730
57527585 21 16772386202593413841
57724786 102 17845382041827668194
6034566 193 18131347522763053774
6608658 132 16056613027518560562
7970288 3 8789440431669063025

> <PUBCHEM_SHAPE_MULTIPOLES>
646.81
15.05
3.65
1.93
22.37
1.36
-0.39
15.8
5.33
1.04
0.54
-1.27
-0.47
0.05

> <PUBCHEM_SHAPE_SELFOVERLAP>
1346.422

> <PUBCHEM_SHAPE_VOLUME>
366.5

> <PUBCHEM_COORDINATE_TYPE>
2
5
10

$$$$
