@<TRIPOS>MOLECULE
*****
 81 84 0 0 0
SMALL
GASTEIGER

@<TRIPOS>ATOM
      1 O           6.3168    1.1280   -0.4909 O.3     1  LIG1       -0.3909
      2 C           0.0850   -0.9733    0.9696 C.3     1  LIG1       -0.0228
      3 C          -0.8635   -1.4629   -0.1851 C.3     1  LIG1       -0.0233
      4 C           1.4981   -1.6119    0.7720 C.3     1  LIG1       -0.0257
      5 C           2.1368   -1.3471   -0.6519 C.3     1  LIG1       -0.0219
      6 C          -2.2295   -0.9164    0.2982 C.3     1  LIG1       -0.0325
      7 C          -0.3346   -0.9141   -1.5143 C.3     1  LIG1       -0.0463
      8 C          -0.7163   -1.4553    2.2003 C.3     1  LIG1       -0.0466
      9 C           1.0774   -1.4540   -1.8113 C.3     1  LIG1       -0.0463
     10 C           2.8585    0.0668   -0.7376 C.3     1  LIG1       -0.0136
     11 C          -2.1990   -1.2088    1.8223 C.3     1  LIG1       -0.0489
     12 C           2.5062   -1.3287    1.9000 C.3     1  LIG1       -0.0306
     13 C           0.1699    0.5775    1.1287 C.3     1  LIG1       -0.0588
     14 C          -0.9812   -3.0189   -0.3215 C.3     1  LIG1       -0.0588
     15 C          -3.4810   -1.4636   -0.3789 C.3     1  LIG1       -0.0403
     16 C           3.4912    0.5737    0.5645 C.2     1  LIG1       -0.0618
     17 C           3.1713   -2.4878   -0.8958 C.3     1  LIG1       -0.0587
     18 C           3.9023    0.1337   -1.8823 C.3     1  LIG1       -0.0436
     19 C           3.3427   -0.1055    1.7167 C.2     1  LIG1       -0.0836
     20 C           4.2317    1.9330    0.4898 C.3     1  LIG1        0.0123
     21 C           4.5148    1.5230   -2.0344 C.3     1  LIG1       -0.0255
     22 C           5.1852    1.9688   -0.7369 C.3     1  LIG1        0.0640
     23 C          -4.7777   -0.8445    0.1849 C.3     1  LIG1       -0.0467
     24 C          -3.4092   -1.2058   -1.8883 C.3     1  LIG1       -0.0621
     25 C           5.0670    2.2672    1.7541 C.3     1  LIG1       -0.0537
     26 C           3.1729    3.0553    0.3603 C.3     1  LIG1       -0.0537
     27 C          -4.9144    0.6735    0.0000 C.3     1  LIG1       -0.0343
     28 C          -6.2224    1.2056    0.5158 C.2     1  LIG1       -0.0853
     29 C          -7.1450    1.9355   -0.1395 C.2     1  LIG1       -0.0796
     30 C          -8.4061    2.3695    0.5605 C.3     1  LIG1       -0.0440
     31 C          -7.0482    2.3874   -1.5688 C.3     1  LIG1       -0.0440
     32 H           1.3341   -2.6938    0.8587 H       1  LIG1        0.0315
     33 H          -2.2258    0.1695    0.1497 H       1  LIG1        0.0309
     34 H          -0.3238    0.1803   -1.5220 H       1  LIG1        0.0271
     35 H          -0.9472   -1.2045   -2.3675 H       1  LIG1        0.0271
     36 H          -0.4528   -0.9251    3.1222 H       1  LIG1        0.0271
     37 H          -0.5508   -2.5216    2.3930 H       1  LIG1        0.0271
     38 H           0.9780   -2.5060   -2.1096 H       1  LIG1        0.0271
     39 H           1.4452   -0.9544   -2.7147 H       1  LIG1        0.0271
     40 H           2.0867    0.7947   -1.0087 H       1  LIG1        0.0351
     41 H          -2.7930   -2.0890    2.0930 H       1  LIG1        0.0268
     42 H          -2.6044   -0.3569    2.3798 H       1  LIG1        0.0268
     43 H           3.1895   -2.1814    2.0035 H       1  LIG1        0.0310
     44 H           1.9799   -1.2571    2.8588 H       1  LIG1        0.0310
     45 H           0.8407    0.8541    1.9475 H       1  LIG1        0.0235
     46 H           0.5016    1.0907    0.2294 H       1  LIG1        0.0235
     47 H          -0.7874    1.0360    1.3967 H       1  LIG1        0.0235
     48 H          -1.5691   -3.3028   -1.1996 H       1  LIG1        0.0235
     49 H          -0.0180   -3.5190   -0.4432 H       1  LIG1        0.0235
     50 H          -1.4597   -3.4851    0.5455 H       1  LIG1        0.0235
     51 H          -3.5674   -2.5452   -0.2191 H       1  LIG1        0.0301
     52 H           3.5255   -2.5003   -1.9325 H       1  LIG1        0.0235
     53 H           4.0440   -2.3973   -0.2411 H       1  LIG1        0.0235
     54 H           2.7238   -3.4720   -0.7144 H       1  LIG1        0.0235
     55 H           3.4459   -0.1424   -2.8385 H       1  LIG1        0.0272
     56 H           4.7175   -0.5776   -1.7043 H       1  LIG1        0.0272
     57 H           3.7977    0.2547    2.6337 H       1  LIG1        0.0572
     58 H           5.2611    1.4848   -2.8373 H       1  LIG1        0.0290
     59 H           3.7464    2.2400   -2.3431 H       1  LIG1        0.0290
     60 H           5.5729    2.9848   -0.8864 H       1  LIG1        0.0602
     61 H          -4.8669   -1.0883    1.2511 H       1  LIG1        0.0271
     62 H          -5.6337   -1.3354   -0.2987 H       1  LIG1        0.0271
     63 H          -3.0165   -0.2134   -2.1308 H       1  LIG1        0.0233
     64 H          -2.8241   -1.9706   -2.4027 H       1  LIG1        0.0233
     65 H          -4.4085   -1.2731   -2.3361 H       1  LIG1        0.0233
     66 H           4.4261    2.4409    2.6267 H       1  LIG1        0.0239
     67 H           5.6520    3.1829    1.6054 H       1  LIG1        0.0239
     68 H           5.7678    1.4653    2.0118 H       1  LIG1        0.0239
     69 H           2.5003    3.0641    1.2264 H       1  LIG1        0.0239
     70 H           2.5483    2.9516   -0.5319 H       1  LIG1        0.0239
     71 H           3.6516    4.0402    0.3060 H       1  LIG1        0.0239
     72 H          -4.7652    0.9337   -1.0489 H       1  LIG1        0.0307
     73 H          -4.1240    1.1838    0.5619 H       1  LIG1        0.0307
     74 H           6.9250    1.6113    0.0932 H       1  LIG1        0.2098
     75 H          -6.4182    0.9606    1.5594 H       1  LIG1        0.0571
     76 H          -8.4493    2.0233    1.5985 H       1  LIG1        0.0274
     77 H          -8.4760    3.4622    0.5724 H       1  LIG1        0.0274
     78 H          -9.2839    1.9703    0.0415 H       1  LIG1        0.0274
     79 H          -7.0996    3.4803   -1.6203 H       1  LIG1        0.0274
     80 H          -6.1263    2.0846   -2.0680 H       1  LIG1        0.0274
     81 H          -7.8822    1.9775   -2.1484 H       1  LIG1        0.0274
@<TRIPOS>BOND
     1     1    22    1
     2     1    74    1
     3     2     3    1
     4     2     4    1
     5     2     8    1
     6     2    13    1
     7     3     6    1
     8     3     7    1
     9     3    14    1
    10     4     5    1
    11     4    12    1
    12     4    32    1
    13     5     9    1
    14     5    10    1
    15     5    17    1
    16     6    11    1
    17     6    15    1
    18     6    33    1
    19     7     9    1
    20     7    34    1
    21     7    35    1
    22     8    11    1
    23     8    36    1
    24     8    37    1
    25     9    38    1
    26     9    39    1
    27    10    16    1
    28    10    18    1
    29    10    40    1
    30    11    41    1
    31    11    42    1
    32    12    19    1
    33    12    43    1
    34    12    44    1
    35    13    45    1
    36    13    46    1
    37    13    47    1
    38    14    48    1
    39    14    49    1
    40    14    50    1
    41    15    23    1
    42    15    24    1
    43    15    51    1
    44    16    19    2
    45    16    20    1
    46    17    52    1
    47    17    53    1
    48    17    54    1
    49    18    21    1
    50    18    55    1
    51    18    56    1
    52    19    57    1
    53    20    22    1
    54    20    25    1
    55    20    26    1
    56    21    22    1
    57    21    58    1
    58    21    59    1
    59    22    60    1
    60    23    27    1
    61    23    61    1
    62    23    62    1
    63    24    63    1
    64    24    64    1
    65    24    65    1
    66    25    66    1
    67    25    67    1
    68    25    68    1
    69    26    69    1
    70    26    70    1
    71    26    71    1
    72    27    28    1
    73    27    72    1
    74    27    73    1
    75    28    29    2
    76    28    75    1
    77    29    30    1
    78    29    31    1
    79    30    76    1
    80    30    77    1
    81    30    78    1
    82    31    79    1
    83    31    80    1
    84    31    81    1
