@<TRIPOS>MOLECULE
*****
   81    84     1     0     0
SMALL
bcc


@<TRIPOS>ATOM
      1 O            6.3170     1.1280    -0.4910 O.3        1 LIG      -0.596800
      2 C            0.0850    -0.9730     0.9700 C.3        1 LIG      -0.038000
      3 C1          -0.8640    -1.4630    -0.1850 C.3        1 LIG      -0.038000
      4 C2           1.4980    -1.6120     0.7720 C.3        1 LIG      -0.035700
      5 C3           2.1370    -1.3470    -0.6520 C.3        1 LIG      -0.023000
      6 C4          -2.2290    -0.9160     0.2980 C.3        1 LIG      -0.054700
      7 C5          -0.3350    -0.9140    -1.5140 C.3        1 LIG      -0.063400
      8 C6          -0.7160    -1.4550     2.2000 C.3        1 LIG      -0.075400
      9 C7           1.0770    -1.4540    -1.8110 C.3        1 LIG      -0.072400
     10 C8           2.8580     0.0670    -0.7380 C.3        1 LIG      -0.014500
     11 C9          -2.1990    -1.2090     1.8220 C.3        1 LIG      -0.076400
     12 C10          2.5060    -1.3290     1.9000 C.3        1 LIG      -0.040200
     13 C11          0.1700     0.5780     1.1290 C.3        1 LIG      -0.088100
     14 C12         -0.9810    -3.0190    -0.3220 C.3        1 LIG      -0.087100
     15 C13         -3.4810    -1.4640    -0.3790 C.3        1 LIG      -0.055700
     16 C14          3.4910     0.5740     0.5650 C.2        1 LIG      -0.088400
     17 C15          3.1710    -2.4880    -0.8960 C.3        1 LIG      -0.092100
     18 C16          3.9020     0.1340    -1.8820 C.3        1 LIG      -0.072400
     19 C17          3.3430    -0.1050     1.7170 C.2        1 LIG      -0.171200
     20 C18          4.2320     1.9330     0.4900 C.3        1 LIG      -0.039800
     21 C19          4.5150     1.5230    -2.0340 C.3        1 LIG      -0.072400
     22 C20          5.1850     1.9690    -0.7370 C.3        1 LIG       0.154100
     23 C21         -4.7780    -0.8450     0.1850 C.3        1 LIG      -0.074400
     24 C22         -3.4090    -1.2060    -1.8880 C.3        1 LIG      -0.090100
     25 C23          5.0670     2.2670     1.7540 C.3        1 LIG      -0.092100
     26 C24          3.1730     3.0550     0.3600 C.3        1 LIG      -0.092100
     27 C25         -4.9140     0.6730     0.0000 C.3        1 LIG      -0.047200
     28 C26         -6.2220     1.2060     0.5160 C.2        1 LIG      -0.175200
     29 C27         -7.1450     1.9350    -0.1400 C.2        1 LIG      -0.126400
     30 C28         -8.4060     2.3690     0.5600 C.3        1 LIG      -0.057400
     31 C29         -7.0480     2.3870    -1.5690 C.3        1 LIG      -0.057400
     32 H            1.3340    -2.6940     0.8590 H          1 LIG       0.046700
     33 H1          -2.2260     0.1700     0.1500 H          1 LIG       0.050700
     34 H2          -0.3240     0.1800    -1.5220 H          1 LIG       0.040700
     35 H3          -0.9470    -1.2040    -2.3680 H          1 LIG       0.040700
     36 H4          -0.4530    -0.9250     3.1220 H          1 LIG       0.041200
     37 H5          -0.5510    -2.5220     2.3930 H          1 LIG       0.041200
     38 H6           0.9780    -2.5060    -2.1100 H          1 LIG       0.038200
     39 H7           1.4450    -0.9540    -2.7150 H          1 LIG       0.038200
     40 H8           2.0870     0.7950    -1.0090 H          1 LIG       0.051700
     41 H9          -2.7930    -2.0890     2.0930 H          1 LIG       0.040700
     42 H10         -2.6040    -0.3570     2.3800 H          1 LIG       0.040700
     43 H11          3.1890    -2.1810     2.0030 H          1 LIG       0.047200
     44 H12          1.9800    -1.2570     2.8590 H          1 LIG       0.047200
     45 H13          0.8410     0.8540     1.9480 H          1 LIG       0.036033
     46 H14          0.5020     1.0910     0.2290 H          1 LIG       0.036033
     47 H15         -0.7870     1.0360     1.3970 H          1 LIG       0.036033
     48 H16         -1.5690    -3.3030    -1.2000 H          1 LIG       0.035367
     49 H17         -0.0180    -3.5190    -0.4430 H          1 LIG       0.035367
     50 H18         -1.4600    -3.4850     0.5450 H          1 LIG       0.035367
     51 H19         -3.5670    -2.5450    -0.2190 H          1 LIG       0.047700
     52 H20          3.5260    -2.5000    -1.9330 H          1 LIG       0.036033
     53 H21          4.0440    -2.3970    -0.2410 H          1 LIG       0.036033
     54 H22          2.7240    -3.4720    -0.7140 H          1 LIG       0.036033
     55 H23          3.4460    -0.1420    -2.8380 H          1 LIG       0.052700
     56 H24          4.7180    -0.5780    -1.7040 H          1 LIG       0.052700
     57 H25          3.7980     0.2550     2.6340 H          1 LIG       0.120000
     58 H26          5.2610     1.4850    -2.8370 H          1 LIG       0.049200
     59 H27          3.7460     2.2400    -2.3430 H          1 LIG       0.049200
     60 H28          5.5730     2.9850    -0.8860 H          1 LIG       0.026700
     61 H29         -4.8670    -1.0880     1.2510 H          1 LIG       0.040200
     62 H30         -5.6340    -1.3350    -0.2990 H          1 LIG       0.040200
     63 H31         -3.0170    -0.2130    -2.1310 H          1 LIG       0.034033
     64 H32         -2.8240    -1.9710    -2.4030 H          1 LIG       0.034033
     65 H33         -4.4090    -1.2730    -2.3360 H          1 LIG       0.034033
     66 H34          4.4260     2.4410     2.6270 H          1 LIG       0.038200
     67 H35          5.6520     3.1830     1.6050 H          1 LIG       0.038200
     68 H36          5.7680     1.4650     2.0120 H          1 LIG       0.038200
     69 H37          2.5000     3.0640     1.2260 H          1 LIG       0.038200
     70 H38          2.5480     2.9520    -0.5320 H          1 LIG       0.038200
     71 H39          3.6520     4.0400     0.3060 H          1 LIG       0.038200
     72 H40         -4.7650     0.9340    -1.0490 H          1 LIG       0.048700
     73 H41         -4.1240     1.1840     0.5620 H          1 LIG       0.048700
     74 H42          6.9250     1.6110     0.0930 H          1 LIG       0.399000
     75 H43         -6.4180     0.9610     1.5590 H          1 LIG       0.121000
     76 H44         -8.4490     2.0230     1.5990 H          1 LIG       0.039700
     77 H45         -8.4760     3.4620     0.5720 H          1 LIG       0.039700
     78 H46         -9.2840     1.9700     0.0420 H          1 LIG       0.039700
     79 H47         -7.1000     3.4800    -1.6200 H          1 LIG       0.039700
     80 H48         -6.1260     2.0850    -2.0680 H          1 LIG       0.039700
     81 H49         -7.8820     1.9780    -2.1480 H          1 LIG       0.039700
@<TRIPOS>BOND
     1     1    22 1   
     2     1    74 1   
     3     2     3 1   
     4     2     4 1   
     5     2     8 1   
     6     2    13 1   
     7     3     6 1   
     8     3     7 1   
     9     3    14 1   
    10     4     5 1   
    11     4    12 1   
    12     4    32 1   
    13     5     9 1   
    14     5    10 1   
    15     5    17 1   
    16     6    11 1   
    17     6    15 1   
    18     6    33 1   
    19     7     9 1   
    20     7    34 1   
    21     7    35 1   
    22     8    11 1   
    23     8    36 1   
    24     8    37 1   
    25     9    38 1   
    26     9    39 1   
    27    10    16 1   
    28    10    18 1   
    29    10    40 1   
    30    11    41 1   
    31    11    42 1   
    32    12    19 1   
    33    12    43 1   
    34    12    44 1   
    35    13    45 1   
    36    13    46 1   
    37    13    47 1   
    38    14    48 1   
    39    14    49 1   
    40    14    50 1   
    41    15    23 1   
    42    15    24 1   
    43    15    51 1   
    44    16    19 2   
    45    16    20 1   
    46    17    52 1   
    47    17    53 1   
    48    17    54 1   
    49    18    21 1   
    50    18    55 1   
    51    18    56 1   
    52    19    57 1   
    53    20    22 1   
    54    20    25 1   
    55    20    26 1   
    56    21    22 1   
    57    21    58 1   
    58    21    59 1   
    59    22    60 1   
    60    23    27 1   
    61    23    61 1   
    62    23    62 1   
    63    24    63 1   
    64    24    64 1   
    65    24    65 1   
    66    25    66 1   
    67    25    67 1   
    68    25    68 1   
    69    26    69 1   
    70    26    70 1   
    71    26    71 1   
    72    27    28 1   
    73    27    72 1   
    74    27    73 1   
    75    28    29 2   
    76    28    75 1   
    77    29    30 1   
    78    29    31 1   
    79    30    76 1   
    80    30    77 1   
    81    30    78 1   
    82    31    79 1   
    83    31    80 1   
    84    31    81 1   
@<TRIPOS>SUBSTRUCTURE
     1 LIG         1 TEMP              0 ****  ****    0 ROOT
