MODEL 1
REMARK VINA RESULT:      -9.7      0.000      0.000
REMARK  5 active torsions:
REMARK  status: ('A' for Active; 'I' for Inactive)
REMARK    1  A    between atoms: O1_2  and  C20_23 
REMARK    2  A    between atoms: C4_7  and  C13_16 
REMARK    3  A    between atoms: C13_16  and  C21_24 
REMARK    4  A    between atoms: C21_24  and  C25_28 
REMARK    5  A    between atoms: C25_28  and  C26_29 
ROOT
ATOM      1  O   LIG d          83.955 163.700  70.651  0.00  0.00    -0.544 OA
ATOM      2  C   LIG d          81.424 163.558  73.967  0.00  0.00    -0.045 C 
ATOM      3  C1  LIG d          80.997 163.172  72.505  0.00  0.00    -0.036 C 
ATOM      4  C2  LIG d          82.920 163.164  74.172  0.00  0.00     0.015 C 
ATOM      5  C3  LIG d          83.904 163.764  73.094  0.00  0.00    -0.117 C 
ATOM      6  C4  LIG d          79.465 163.397  72.571  0.00  0.00    -0.001 C 
ATOM      7  C5  LIG d          80.396 162.740  74.781  0.00  0.00     0.013 C 
ATOM      8  C6  LIG d          81.767 164.048  71.521  0.00  0.00    -0.019 C 
ATOM      9  C7  LIG d          79.086 162.824  73.960  0.00  0.00     0.012 C 
ATOM     10  C8  LIG d          84.361 165.241  73.428  0.00  0.00     0.044 C 
ATOM     11  C9  LIG d          83.264 163.796  71.670  0.00  0.00     0.572 C 
ATOM     12  C10 LIG d          83.459 163.372  75.599  0.00  0.00     0.061 C 
ATOM     13  C11 LIG d          81.160 165.047  74.350  0.00  0.00     0.027 C 
ATOM     14  C12 LIG d          81.266 161.681  72.110  0.00  0.00     0.027 C 
ATOM     15  C14 LIG d          84.457 165.589  74.917  0.00  0.00    -0.109 C 
ATOM     16  C15 LIG d          85.118 162.795  73.026  0.00  0.00     0.047 C 
ATOM     17  C16 LIG d          85.678 165.627  72.713  0.00  0.00     0.033 C 
ATOM     18  C17 LIG d          84.078 164.706  75.859  0.00  0.00    -0.037 C 
ATOM     19  C18 LIG d          84.941 167.020  75.262  0.00  0.00    -0.043 C 
ATOM     20  C19 LIG d          86.070 167.083  72.951  0.00  0.00    -0.003 C 
ATOM     21  C20 LIG d          86.213 167.379  74.442  0.00  0.00     0.222 C 
ATOM     22  C23 LIG d          85.251 167.234  76.768  0.00  0.00     0.034 C 
ATOM     23  C24 LIG d          83.803 168.013  74.914  0.00  0.00     0.034 C 
ENDROOT
BRANCH   6  24
ATOM     24  C13 LIG d          78.621 162.810  71.447  0.00  0.00    -0.008 C 
ATOM     25  C22 LIG d          77.899 163.933  70.696  0.00  0.00     0.015 C 
BRANCH  24  26
ATOM     26  C21 LIG d          77.635 161.767  72.019  0.00  0.00     0.008 C 
BRANCH  26  27
ATOM     27  C25 LIG d          77.909 160.309  71.623  0.00  0.00     0.049 C 
BRANCH  27  28
ATOM     28  C26 LIG d          78.200 159.431  72.809  0.00  0.00    -0.055 C 
ATOM     29  C27 LIG d          79.162 158.499  72.942  0.00  0.00    -0.124 C 
ATOM     30  C28 LIG d          80.173 158.130  71.894  0.00  0.00     0.063 C 
ATOM     31  C29 LIG d          79.293 157.723  74.226  0.00  0.00     0.063 C 
ENDBRANCH  27  28
ENDBRANCH  26  27
ENDBRANCH  24  26
ENDBRANCH   6  24
BRANCH  21  32
ATOM     32  O1  LIG d          87.348 166.650  74.917  0.00  0.00    -0.596 OA
ATOM     33  H40 LIG d          87.185 165.707  74.751  0.00  0.00     0.401 HD
ENDBRANCH  21  32
TORSDOF 5
ENDMDL
MODEL 2
REMARK VINA RESULT:      -9.2      2.910      8.095
REMARK  5 active torsions:
REMARK  status: ('A' for Active; 'I' for Inactive)
REMARK    1  A    between atoms: O1_2  and  C20_23 
REMARK    2  A    between atoms: C4_7  and  C13_16 
REMARK    3  A    between atoms: C13_16  and  C21_24 
REMARK    4  A    between atoms: C21_24  and  C25_28 
REMARK    5  A    between atoms: C25_28  and  C26_29 
ROOT
ATOM      1  O   LIG d          82.370 164.260  76.690  0.00  0.00    -0.544 OA
ATOM      2  C   LIG d          83.170 165.297  72.727  0.00  0.00    -0.045 C 
ATOM      3  C1  LIG d          84.231 165.327  73.887  0.00  0.00    -0.036 C 
ATOM      4  C2  LIG d          82.177 164.122  72.989  0.00  0.00     0.015 C 
ATOM      5  C3  LIG d          81.493 164.154  74.411  0.00  0.00    -0.117 C 
ATOM      6  C4  LIG d          85.246 166.361  73.337  0.00  0.00    -0.001 C 
ATOM      7  C5  LIG d          84.101 165.130  71.505  0.00  0.00     0.013 C 
ATOM      8  C6  LIG d          83.526 165.698  75.188  0.00  0.00    -0.019 C 
ATOM      9  C7  LIG d          85.345 165.992  71.836  0.00  0.00     0.012 C 
ATOM     10  C8  LIG d          80.223 165.096  74.466  0.00  0.00     0.044 C 
ATOM     11  C9  LIG d          82.474 164.645  75.522  0.00  0.00     0.572 C 
ATOM     12  C10 LIG d          81.141 163.886  71.875  0.00  0.00     0.061 C 
ATOM     13  C11 LIG d          82.423 166.646  72.494  0.00  0.00     0.027 C 
ATOM     14  C12 LIG d          84.980 163.975  74.133  0.00  0.00     0.027 C 
ATOM     15  C14 LIG d          79.425 165.215  73.163  0.00  0.00    -0.109 C 
ATOM     16  C15 LIG d          81.123 162.681  74.748  0.00  0.00     0.047 C 
ATOM     17  C16 LIG d          79.272 164.736  75.633  0.00  0.00     0.033 C 
ATOM     18  C17 LIG d          79.853 164.624  72.033  0.00  0.00    -0.037 C 
ATOM     19  C18 LIG d          78.156 166.104  73.211  0.00  0.00    -0.043 C 
ATOM     20  C19 LIG d          78.098 165.704  75.752  0.00  0.00    -0.003 C 
ATOM     21  C20 LIG d          77.292 165.755  74.457  0.00  0.00     0.222 C 
ATOM     22  C23 LIG d          77.262 165.993  71.948  0.00  0.00     0.034 C 
ATOM     23  C24 LIG d          78.604 167.585  73.290  0.00  0.00     0.034 C 
ENDROOT
BRANCH   6  24
ATOM     24  C13 LIG d          86.610 166.432  74.012  0.00  0.00    -0.008 C 
ATOM     25  C22 LIG d          86.491 167.162  75.353  0.00  0.00     0.015 C 
BRANCH  24  26
ATOM     26  C21 LIG d          87.629 167.112  73.070  0.00  0.00     0.008 C 
BRANCH  26  27
ATOM     27  C25 LIG d          87.766 168.632  73.229  0.00  0.00     0.049 C 
BRANCH  27  28
ATOM     28  C26 LIG d          86.901 169.397  72.266  0.00  0.00    -0.055 C 
ATOM     29  C27 LIG d          85.718 169.997  72.499  0.00  0.00    -0.124 C 
ATOM     30  C28 LIG d          84.994 170.021  73.814  0.00  0.00     0.063 C 
ATOM     31  C29 LIG d          85.006 170.726  71.389  0.00  0.00     0.063 C 
ENDBRANCH  27  28
ENDBRANCH  26  27
ENDBRANCH  24  26
ENDBRANCH   6  24
BRANCH  21  32
ATOM     32  O1  LIG d          76.656 164.484  74.297  0.00  0.00    -0.596 OA
ATOM     33  H40 LIG d          76.202 164.487  73.438  0.00  0.00     0.401 HD
ENDBRANCH  21  32
TORSDOF 5
ENDMDL
MODEL 3
REMARK VINA RESULT:      -8.8      2.222      8.027
REMARK  5 active torsions:
REMARK  status: ('A' for Active; 'I' for Inactive)
REMARK    1  A    between atoms: O1_2  and  C20_23 
REMARK    2  A    between atoms: C4_7  and  C13_16 
REMARK    3  A    between atoms: C13_16  and  C21_24 
REMARK    4  A    between atoms: C21_24  and  C25_28 
REMARK    5  A    between atoms: C25_28  and  C26_29 
ROOT
ATOM      1  O   LIG d          80.368 167.222  71.876  0.00  0.00    -0.544 OA
ATOM      2  C   LIG d          82.529 164.524  74.216  0.00  0.00    -0.045 C 
ATOM      3  C1  LIG d          83.144 165.795  73.525  0.00  0.00    -0.036 C 
ATOM      4  C2  LIG d          81.061 164.846  74.638  0.00  0.00     0.015 C 
ATOM      5  C3  LIG d          80.149 165.377  73.465  0.00  0.00    -0.117 C 
ATOM      6  C4  LIG d          84.633 165.381  73.409  0.00  0.00    -0.001 C 
ATOM      7  C5  LIG d          83.534 164.325  75.373  0.00  0.00     0.013 C 
ATOM      8  C6  LIG d          82.408 166.044  72.212  0.00  0.00    -0.019 C 
ATOM      9  C7  LIG d          84.911 164.689  74.767  0.00  0.00     0.012 C 
ATOM     10  C8  LIG d          79.527 164.216  72.590  0.00  0.00     0.044 C 
ATOM     11  C9  LIG d          80.933 166.313  72.491  0.00  0.00     0.572 C 
ATOM     12  C10 LIG d          80.356 163.735  75.436  0.00  0.00     0.061 C 
ATOM     13  C11 LIG d          82.614 163.218  73.368  0.00  0.00     0.027 C 
ATOM     14  C12 LIG d          83.055 167.112  74.366  0.00  0.00     0.027 C 
ATOM     15  C14 LIG d          79.240 162.904  73.329  0.00  0.00    -0.109 C 
ATOM     16  C15 LIG d          79.042 166.241  74.133  0.00  0.00     0.047 C 
ATOM     17  C16 LIG d          78.265 164.670  71.818  0.00  0.00     0.033 C 
ATOM     18  C17 LIG d          79.594 162.745  74.617  0.00  0.00    -0.037 C 
ATOM     19  C18 LIG d          78.595 161.769  72.495  0.00  0.00    -0.043 C 
ATOM     20  C19 LIG d          77.720 163.584  70.895  0.00  0.00    -0.003 C 
ATOM     21  C20 LIG d          77.391 162.313  71.673  0.00  0.00     0.222 C 
ATOM     22  C23 LIG d          78.106 160.565  73.343  0.00  0.00     0.034 C 
ATOM     23  C24 LIG d          79.669 161.206  71.531  0.00  0.00     0.034 C 
ENDROOT
BRANCH   6  24
ATOM     24  C13 LIG d          85.643 166.479  73.096  0.00  0.00    -0.008 C 
ATOM     25  C22 LIG d          86.119 166.351  71.646  0.00  0.00     0.015 C 
BRANCH  24  26
ATOM     26  C21 LIG d          86.817 166.415  74.099  0.00  0.00     0.008 C 
BRANCH  26  27
ATOM     27  C25 LIG d          87.389 167.771  74.536  0.00  0.00     0.049 C 
BRANCH  27  28
ATOM     28  C26 LIG d          86.326 168.728  75.000  0.00  0.00    -0.055 C 
ATOM     29  C27 LIG d          85.647 168.725  76.162  0.00  0.00    -0.124 C 
ATOM     30  C28 LIG d          85.818 167.727  77.272  0.00  0.00     0.063 C 
ATOM     31  C29 LIG d          84.615 169.786  76.441  0.00  0.00     0.063 C 
ENDBRANCH  27  28
ENDBRANCH  26  27
ENDBRANCH  24  26
ENDBRANCH   6  24
BRANCH  21  32
ATOM     32  O1  LIG d          76.282 162.606  72.527  0.00  0.00    -0.596 OA
ATOM     33  H40 LIG d          76.168 161.855  73.133  0.00  0.00     0.401 HD
ENDBRANCH  21  32
TORSDOF 5
ENDMDL
MODEL 4
REMARK VINA RESULT:      -8.8      2.541      8.281
REMARK  5 active torsions:
REMARK  status: ('A' for Active; 'I' for Inactive)
REMARK    1  A    between atoms: O1_2  and  C20_23 
REMARK    2  A    between atoms: C4_7  and  C13_16 
REMARK    3  A    between atoms: C13_16  and  C21_24 
REMARK    4  A    between atoms: C21_24  and  C25_28 
REMARK    5  A    between atoms: C25_28  and  C26_29 
ROOT
ATOM      1  O   LIG d          84.110 165.173  76.687  0.00  0.00    -0.544 OA
ATOM      2  C   LIG d          84.873 165.463  72.594  0.00  0.00    -0.045 C 
ATOM      3  C1  LIG d          85.452 166.442  73.678  0.00  0.00    -0.036 C 
ATOM      4  C2  LIG d          84.760 164.037  73.217  0.00  0.00     0.015 C 
ATOM      5  C3  LIG d          83.936 163.979  74.562  0.00  0.00    -0.117 C 
ATOM      6  C4  LIG d          85.722 167.707  72.825  0.00  0.00    -0.001 C 
ATOM      7  C5  LIG d          85.931 165.628  71.479  0.00  0.00     0.013 C 
ATOM      8  C6  LIG d          84.430 166.590  74.802  0.00  0.00    -0.019 C 
ATOM      9  C7  LIG d          86.312 167.128  71.515  0.00  0.00     0.012 C 
ATOM     10  C8  LIG d          82.375 163.881  74.327  0.00  0.00     0.044 C 
ATOM     11  C9  LIG d          84.185 165.234  75.456  0.00  0.00     0.572 C 
ATOM     12  C10 LIG d          84.315 162.933  72.240  0.00  0.00     0.061 C 
ATOM     13  C11 LIG d          83.527 165.923  71.954  0.00  0.00     0.027 C 
ATOM     14  C12 LIG d          86.799 165.983  74.331  0.00  0.00     0.027 C 
ATOM     15  C14 LIG d          81.936 163.142  73.058  0.00  0.00    -0.109 C 
ATOM     16  C15 LIG d          84.471 162.747  75.346  0.00  0.00     0.047 C 
ATOM     17  C16 LIG d          81.629 163.303  75.554  0.00  0.00     0.033 C 
ATOM     18  C17 LIG d          82.842 162.700  72.167  0.00  0.00    -0.037 C 
ATOM     19  C18 LIG d          80.409 163.004  72.833  0.00  0.00    -0.043 C 
ATOM     20  C19 LIG d          80.113 163.301  75.372  0.00  0.00    -0.003 C 
ATOM     21  C20 LIG d          79.709 162.509  74.131  0.00  0.00     0.222 C 
ATOM     22  C23 LIG d          80.028 162.045  71.674  0.00  0.00     0.034 C 
ATOM     23  C24 LIG d          79.849 164.394  72.440  0.00  0.00     0.034 C 
ENDROOT
BRANCH   6  24
ATOM     24  C13 LIG d          86.606 168.788  73.435  0.00  0.00    -0.008 C 
ATOM     25  C22 LIG d          85.813 169.583  74.478  0.00  0.00     0.015 C 
BRANCH  24  26
ATOM     26  C21 LIG d          87.171 169.697  72.321  0.00  0.00     0.008 C 
BRANCH  26  27
ATOM     27  C25 LIG d          86.484 171.061  72.165  0.00  0.00     0.049 C 
BRANCH  27  28
ATOM     28  C26 LIG d          85.231 170.988  71.336  0.00  0.00    -0.055 C 
ATOM     29  C27 LIG d          84.005 171.460  71.631  0.00  0.00    -0.124 C 
ATOM     30  C28 LIG d          83.624 172.177  72.894  0.00  0.00     0.063 C 
ATOM     31  C29 LIG d          82.872 171.291  70.652  0.00  0.00     0.063 C 
ENDBRANCH  27  28
ENDBRANCH  26  27
ENDBRANCH  24  26
ENDBRANCH   6  24
BRANCH  21  32
ATOM     32  O1  LIG d          80.012 161.134  74.382  0.00  0.00    -0.596 OA
ATOM     33  H40 LIG d          80.706 161.104  75.062  0.00  0.00     0.401 HD
ENDBRANCH  21  32
TORSDOF 5
ENDMDL
MODEL 5
REMARK VINA RESULT:      -8.6      2.860      5.270
REMARK  5 active torsions:
REMARK  status: ('A' for Active; 'I' for Inactive)
REMARK    1  A    between atoms: O1_2  and  C20_23 
REMARK    2  A    between atoms: C4_7  and  C13_16 
REMARK    3  A    between atoms: C13_16  and  C21_24 
REMARK    4  A    between atoms: C21_24  and  C25_28 
REMARK    5  A    between atoms: C25_28  and  C26_29 
ROOT
ATOM      1  O   LIG d          87.689 167.312  72.216  0.00  0.00    -0.544 OA
ATOM      2  C   LIG d          83.797 166.969  73.684  0.00  0.00    -0.045 C 
ATOM      3  C1  LIG d          84.618 165.785  73.055  0.00  0.00    -0.036 C 
ATOM      4  C2  LIG d          84.782 167.915  74.438  0.00  0.00     0.015 C 
ATOM      5  C3  LIG d          85.984 168.436  73.559  0.00  0.00    -0.117 C 
ATOM      6  C4  LIG d          83.478 164.848  72.582  0.00  0.00    -0.001 C 
ATOM      7  C5  LIG d          82.810 166.178  74.574  0.00  0.00     0.013 C 
ATOM      8  C6  LIG d          85.529 166.344  71.966  0.00  0.00    -0.019 C 
ATOM      9  C7  LIG d          82.463 164.914  73.751  0.00  0.00     0.012 C 
ATOM     10  C8  LIG d          85.610 169.701  72.686  0.00  0.00     0.044 C 
ATOM     11  C9  LIG d          86.509 167.342  72.576  0.00  0.00     0.572 C 
ATOM     12  C10 LIG d          84.114 169.067  75.212  0.00  0.00     0.061 C 
ATOM     13  C11 LIG d          82.903 167.750  72.673  0.00  0.00     0.027 C 
ATOM     14  C12 LIG d          85.524 165.001  74.063  0.00  0.00     0.027 C 
ATOM     15  C14 LIG d          84.560 170.641  73.289  0.00  0.00    -0.109 C 
ATOM     16  C15 LIG d          87.141 168.752  74.549  0.00  0.00     0.047 C 
ATOM     17  C16 LIG d          86.856 170.512  72.257  0.00  0.00     0.033 C 
ATOM     18  C17 LIG d          83.942 170.336  74.444  0.00  0.00    -0.037 C 
ATOM     19  C18 LIG d          84.210 171.905  72.463  0.00  0.00    -0.043 C 
ATOM     20  C19 LIG d          86.509 171.674  71.331  0.00  0.00    -0.003 C 
ATOM     21  C20 LIG d          85.506 172.621  71.986  0.00  0.00     0.222 C 
ATOM     22  C23 LIG d          83.335 172.933  73.228  0.00  0.00     0.034 C 
ATOM     23  C24 LIG d          83.378 171.465  71.233  0.00  0.00     0.034 C 
ENDROOT
BRANCH   6  24
ATOM     24  C13 LIG d          83.854 163.417  72.215  0.00  0.00    -0.008 C 
ATOM     25  C22 LIG d          84.343 163.363  70.765  0.00  0.00     0.015 C 
BRANCH  24  26
ATOM     26  C21 LIG d          82.650 162.479  72.457  0.00  0.00     0.008 C 
BRANCH  26  27
ATOM     27  C25 LIG d          81.656 162.363  71.294  0.00  0.00     0.049 C 
BRANCH  27  28
ATOM     28  C26 LIG d          80.226 162.313  71.755  0.00  0.00    -0.055 C 
ATOM     29  C27 LIG d          79.354 163.331  71.889  0.00  0.00    -0.124 C 
ATOM     30  C28 LIG d          79.645 164.775  71.598  0.00  0.00     0.063 C 
ATOM     31  C29 LIG d          77.950 163.068  72.365  0.00  0.00     0.063 C 
ENDBRANCH  27  28
ENDBRANCH  26  27
ENDBRANCH  24  26
ENDBRANCH   6  24
BRANCH  21  32
ATOM     32  O1  LIG d          86.170 173.258  73.081  0.00  0.00    -0.596 OA
ATOM     33  H40 LIG d          87.057 172.870  73.156  0.00  0.00     0.401 HD
ENDBRANCH  21  32
TORSDOF 5
ENDMDL
MODEL 6
REMARK VINA RESULT:      -8.1      2.963      4.621
REMARK  5 active torsions:
REMARK  status: ('A' for Active; 'I' for Inactive)
REMARK    1  A    between atoms: O1_2  and  C20_23 
REMARK    2  A    between atoms: C4_7  and  C13_16 
REMARK    3  A    between atoms: C13_16  and  C21_24 
REMARK    4  A    between atoms: C21_24  and  C25_28 
REMARK    5  A    between atoms: C25_28  and  C26_29 
ROOT
ATOM      1  O   LIG d          81.695 166.868  72.038  0.00  0.00    -0.544 OA
ATOM      2  C   LIG d          82.759 164.092  74.968  0.00  0.00    -0.045 C 
ATOM      3  C1  LIG d          81.293 164.596  74.710  0.00  0.00    -0.036 C 
ATOM      4  C2  LIG d          83.518 164.044  73.605  0.00  0.00     0.015 C 
ATOM      5  C3  LIG d          83.496 165.401  72.801  0.00  0.00    -0.117 C 
ATOM      6  C4  LIG d          80.642 164.342  76.093  0.00  0.00    -0.001 C 
ATOM      7  C5  LIG d          82.470 162.724  75.626  0.00  0.00     0.013 C 
ATOM      8  C6  LIG d          81.347 166.048  74.245  0.00  0.00    -0.019 C 
ATOM      9  C7  LIG d          81.220 162.965  76.506  0.00  0.00     0.012 C 
ATOM     10  C8  LIG d          84.617 166.415  73.265  0.00  0.00     0.044 C 
ATOM     11  C9  LIG d          82.127 166.141  72.937  0.00  0.00     0.572 C 
ATOM     12  C10 LIG d          84.940 163.457  73.673  0.00  0.00     0.061 C 
ATOM     13  C11 LIG d          83.547 164.905  76.041  0.00  0.00     0.027 C 
ATOM     14  C12 LIG d          80.498 163.790  73.629  0.00  0.00     0.027 C 
ATOM     15  C14 LIG d          85.915 165.783  73.781  0.00  0.00    -0.109 C 
ATOM     16  C15 LIG d          83.660 165.020  71.302  0.00  0.00     0.047 C 
ATOM     17  C16 LIG d          84.943 167.471  72.182  0.00  0.00     0.033 C 
ATOM     18  C17 LIG d          86.030 164.450  73.912  0.00  0.00    -0.037 C 
ATOM     19  C18 LIG d          87.039 166.763  74.205  0.00  0.00    -0.043 C 
ATOM     20  C19 LIG d          85.951 168.512  72.662  0.00  0.00    -0.003 C 
ATOM     21  C20 LIG d          87.251 167.853  73.114  0.00  0.00     0.222 C 
ATOM     22  C23 LIG d          88.401 166.075  74.483  0.00  0.00     0.034 C 
ATOM     23  C24 LIG d          86.619 167.436  75.535  0.00  0.00     0.034 C 
ENDROOT
BRANCH   6  24
ATOM     24  C13 LIG d          79.120 164.384  76.170  0.00  0.00    -0.008 C 
ATOM     25  C22 LIG d          78.648 165.827  76.369  0.00  0.00     0.015 C 
BRANCH  24  26
ATOM     26  C21 LIG d          78.625 163.450  77.297  0.00  0.00     0.008 C 
BRANCH  26  27
ATOM     27  C25 LIG d          78.906 163.931  78.727  0.00  0.00     0.049 C 
BRANCH  27  28
ATOM     28  C26 LIG d          79.273 162.807  79.656  0.00  0.00    -0.055 C 
ATOM     29  C27 LIG d          79.563 162.869  80.969  0.00  0.00    -0.124 C 
ATOM     30  C28 LIG d          79.583 164.118  81.803  0.00  0.00     0.063 C 
ATOM     31  C29 LIG d          79.904 161.614  81.730  0.00  0.00     0.063 C 
ENDBRANCH  27  28
ENDBRANCH  26  27
ENDBRANCH  24  26
ENDBRANCH   6  24
BRANCH  21  32
ATOM     32  O1  LIG d          87.878 167.298  71.954  0.00  0.00    -0.596 OA
ATOM     33  H40 LIG d          87.479 167.718  71.174  0.00  0.00     0.401 HD
ENDBRANCH  21  32
TORSDOF 5
ENDMDL
MODEL 7
REMARK VINA RESULT:      -8.1      1.913      3.674
REMARK  5 active torsions:
REMARK  status: ('A' for Active; 'I' for Inactive)
REMARK    1  A    between atoms: O1_2  and  C20_23 
REMARK    2  A    between atoms: C4_7  and  C13_16 
REMARK    3  A    between atoms: C13_16  and  C21_24 
REMARK    4  A    between atoms: C21_24  and  C25_28 
REMARK    5  A    between atoms: C25_28  and  C26_29 
ROOT
ATOM      1  O   LIG d          84.526 162.340  72.194  0.00  0.00    -0.544 OA
ATOM      2  C   LIG d          81.992 164.737  74.487  0.00  0.00    -0.045 C 
ATOM      3  C1  LIG d          81.515 163.526  73.605  0.00  0.00    -0.036 C 
ATOM      4  C2  LIG d          83.406 164.411  75.060  0.00  0.00     0.015 C 
ATOM      5  C3  LIG d          84.476 164.022  73.967  0.00  0.00    -0.117 C 
ATOM      6  C4  LIG d          80.037 163.912  73.341  0.00  0.00    -0.001 C 
ATOM      7  C5  LIG d          80.844 164.795  75.521  0.00  0.00     0.013 C 
ATOM      8  C6  LIG d          82.417 163.427  72.378  0.00  0.00    -0.019 C 
ATOM      9  C7  LIG d          79.567 164.459  74.712  0.00  0.00     0.012 C 
ATOM     10  C8  LIG d          85.159 165.280  73.294  0.00  0.00     0.044 C 
ATOM     11  C9  LIG d          83.855 163.169  72.816  0.00  0.00     0.572 C 
ATOM     12  C10 LIG d          83.966 165.454  76.044  0.00  0.00     0.061 C 
ATOM     13  C11 LIG d          81.964 166.118  73.764  0.00  0.00     0.027 C 
ATOM     14  C12 LIG d          81.547 162.135  74.321  0.00  0.00     0.027 C 
ATOM     15  C14 LIG d          85.303 166.518  74.185  0.00  0.00    -0.109 C 
ATOM     16  C15 LIG d          85.523 163.124  74.685  0.00  0.00     0.047 C 
ATOM     17  C16 LIG d          86.523 164.936  72.649  0.00  0.00     0.033 C 
ATOM     18  C17 LIG d          84.786 166.540  75.427  0.00  0.00    -0.037 C 
ATOM     19  C18 LIG d          86.004 167.747  73.552  0.00  0.00    -0.043 C 
ATOM     20  C19 LIG d          87.138 166.122  71.910  0.00  0.00    -0.003 C 
ATOM     21  C20 LIG d          87.320 167.317  72.842  0.00  0.00     0.222 C 
ATOM     22  C23 LIG d          86.338 168.872  74.567  0.00  0.00     0.034 C 
ATOM     23  C24 LIG d          85.038 168.376  72.518  0.00  0.00     0.034 C 
ENDROOT
BRANCH   6  24
ATOM     24  C13 LIG d          79.116 162.827  72.798  0.00  0.00    -0.008 C 
ATOM     25  C22 LIG d          79.757 162.161  71.577  0.00  0.00     0.015 C 
BRANCH  24  26
ATOM     26  C21 LIG d          77.730 163.428  72.471  0.00  0.00     0.008 C 
BRANCH  26  27
ATOM     27  C25 LIG d          77.743 164.667  71.565  0.00  0.00     0.049 C 
BRANCH  27  28
ATOM     28  C26 LIG d          76.862 165.771  72.079  0.00  0.00    -0.055 C 
ATOM     29  C27 LIG d          77.227 166.949  72.620  0.00  0.00    -0.124 C 
ATOM     30  C28 LIG d          78.639 167.414  72.832  0.00  0.00     0.063 C 
ATOM     31  C29 LIG d          76.179 167.932  73.073  0.00  0.00     0.063 C 
ENDBRANCH  27  28
ENDBRANCH  26  27
ENDBRANCH  24  26
ENDBRANCH   6  24
BRANCH  21  32
ATOM     32  O1  LIG d          88.325 166.968  73.798  0.00  0.00    -0.596 OA
ATOM     33  H40 LIG d          89.094 166.631  73.309  0.00  0.00     0.401 HD
ENDBRANCH  21  32
TORSDOF 5
ENDMDL
MODEL 8
REMARK VINA RESULT:      -8.0      2.665      4.141
REMARK  5 active torsions:
REMARK  status: ('A' for Active; 'I' for Inactive)
REMARK    1  A    between atoms: O1_2  and  C20_23 
REMARK    2  A    between atoms: C4_7  and  C13_16 
REMARK    3  A    between atoms: C13_16  and  C21_24 
REMARK    4  A    between atoms: C21_24  and  C25_28 
REMARK    5  A    between atoms: C25_28  and  C26_29 
ROOT
ATOM      1  O   LIG d          86.230 166.189  72.536  0.00  0.00    -0.544 OA
ATOM      2  C   LIG d          82.259 166.895  73.613  0.00  0.00    -0.045 C 
ATOM      3  C1  LIG d          82.814 165.510  73.118  0.00  0.00    -0.036 C 
ATOM      4  C2  LIG d          83.377 167.620  74.425  0.00  0.00     0.015 C 
ATOM      5  C3  LIG d          84.744 167.777  73.652  0.00  0.00    -0.117 C 
ATOM      6  C4  LIG d          81.525 164.850  72.569  0.00  0.00    -0.001 C 
ATOM      7  C5  LIG d          81.032 166.426  74.428  0.00  0.00     0.013 C 
ATOM      8  C6  LIG d          83.928 165.761  72.106  0.00  0.00    -0.019 C 
ATOM      9  C7  LIG d          80.457 165.235  73.624  0.00  0.00     0.012 C 
ATOM     10  C8  LIG d          84.774 169.036  72.696  0.00  0.00     0.044 C 
ATOM     11  C9  LIG d          85.066 166.528  72.773  0.00  0.00     0.572 C 
ATOM     12  C10 LIG d          82.949 168.946  75.080  0.00  0.00     0.061 C 
ATOM     13  C11 LIG d          81.681 167.804  72.485  0.00  0.00     0.027 C 
ATOM     14  C12 LIG d          83.404 164.595  74.243  0.00  0.00     0.027 C 
ATOM     15  C14 LIG d          83.941 170.240  73.151  0.00  0.00    -0.109 C 
ATOM     16  C15 LIG d          85.851 167.865  74.742  0.00  0.00     0.047 C 
ATOM     17  C16 LIG d          86.216 169.492  72.365  0.00  0.00     0.033 C 
ATOM     18  C17 LIG d          83.165 170.168  74.248  0.00  0.00    -0.037 C 
ATOM     19  C18 LIG d          83.989 171.496  72.245  0.00  0.00    -0.043 C 
ATOM     20  C19 LIG d          86.251 170.642  71.363  0.00  0.00    -0.003 C 
ATOM     21  C20 LIG d          85.460 171.844  71.874  0.00  0.00     0.222 C 
ATOM     22  C23 LIG d          83.332 172.752  72.874  0.00  0.00     0.034 C 
ATOM     23  C24 LIG d          83.187 171.193  70.955  0.00  0.00     0.034 C 
ENDROOT
BRANCH   6  24
ATOM     24  C13 LIG d          81.565 163.351  72.299  0.00  0.00    -0.008 C 
ATOM     25  C22 LIG d          82.565 163.050  71.179  0.00  0.00     0.015 C 
BRANCH  24  26
ATOM     26  C21 LIG d          80.147 162.838  71.963  0.00  0.00     0.008 C 
BRANCH  26  27
ATOM     27  C25 LIG d          79.631 161.690  72.842  0.00  0.00     0.049 C 
BRANCH  27  28
ATOM     28  C26 LIG d          79.830 160.340  72.210  0.00  0.00    -0.055 C 
ATOM     29  C27 LIG d          79.562 159.127  72.729  0.00  0.00    -0.124 C 
ATOM     30  C28 LIG d          78.994 158.865  74.094  0.00  0.00     0.063 C 
ATOM     31  C29 LIG d          79.830 157.883  71.923  0.00  0.00     0.063 C 
ENDBRANCH  27  28
ENDBRANCH  26  27
ENDBRANCH  24  26
ENDBRANCH   6  24
BRANCH  21  32
ATOM     32  O1  LIG d          86.160 172.370  73.004  0.00  0.00    -0.596 OA
ATOM     33  H40 LIG d          85.879 171.866  73.787  0.00  0.00     0.401 HD
ENDBRANCH  21  32
TORSDOF 5
ENDMDL
MODEL 9
REMARK VINA RESULT:      -8.0      3.252      8.189
REMARK  5 active torsions:
REMARK  status: ('A' for Active; 'I' for Inactive)
REMARK    1  A    between atoms: O1_2  and  C20_23 
REMARK    2  A    between atoms: C4_7  and  C13_16 
REMARK    3  A    between atoms: C13_16  and  C21_24 
REMARK    4  A    between atoms: C21_24  and  C25_28 
REMARK    5  A    between atoms: C25_28  and  C26_29 
ROOT
ATOM      1  O   LIG d          82.786 164.167  74.012  0.00  0.00    -0.544 OA
ATOM      2  C   LIG d          82.022 168.218  73.356  0.00  0.00    -0.045 C 
ATOM      3  C1  LIG d          83.422 167.631  73.765  0.00  0.00    -0.036 C 
ATOM      4  C2  LIG d          81.290 167.180  72.450  0.00  0.00     0.015 C 
ATOM      5  C3  LIG d          81.162 165.740  73.083  0.00  0.00    -0.117 C 
ATOM      6  C4  LIG d          84.082 168.866  74.428  0.00  0.00    -0.001 C 
ATOM      7  C5  LIG d          82.463 169.526  72.660  0.00  0.00     0.013 C 
ATOM      8  C6  LIG d          83.202 166.418  74.664  0.00  0.00    -0.019 C 
ATOM      9  C7  LIG d          83.666 170.030  73.494  0.00  0.00     0.012 C 
ATOM     10  C8  LIG d          79.923 165.600  74.056  0.00  0.00     0.044 C 
ATOM     11  C9  LIG d          82.432 165.345  73.901  0.00  0.00     0.572 C 
ATOM     12  C10 LIG d          79.947 167.657  71.868  0.00  0.00     0.061 C 
ATOM     13  C11 LIG d          81.132 168.670  74.554  0.00  0.00     0.027 C 
ATOM     14  C12 LIG d          84.319 167.168  72.569  0.00  0.00     0.027 C 
ATOM     15  C14 LIG d          78.703 166.462  73.712  0.00  0.00    -0.109 C 
ATOM     16  C15 LIG d          81.062 164.748  71.890  0.00  0.00     0.047 C 
ATOM     17  C16 LIG d          79.488 164.128  74.249  0.00  0.00     0.033 C 
ATOM     18  C17 LIG d          78.745 167.344  72.697  0.00  0.00    -0.037 C 
ATOM     19  C18 LIG d          77.467 166.308  74.633  0.00  0.00    -0.043 C 
ATOM     20  C19 LIG d          78.359 163.979  75.265  0.00  0.00    -0.003 C 
ATOM     21  C20 LIG d          77.140 164.804  74.861  0.00  0.00     0.222 C 
ATOM     22  C23 LIG d          76.192 167.012  74.098  0.00  0.00     0.034 C 
ATOM     23  C24 LIG d          77.789 166.980  75.991  0.00  0.00     0.034 C 
ENDROOT
BRANCH   6  24
ATOM     24  C13 LIG d          85.587 168.815  74.663  0.00  0.00    -0.008 C 
ATOM     25  C22 LIG d          85.892 169.064  76.143  0.00  0.00     0.015 C 
BRANCH  24  26
ATOM     26  C21 LIG d          86.297 169.836  73.745  0.00  0.00     0.008 C 
BRANCH  26  27
ATOM     27  C25 LIG d          87.620 169.362  73.127  0.00  0.00     0.049 C 
BRANCH  27  28
ATOM     28  C26 LIG d          87.477 168.073  72.366  0.00  0.00    -0.055 C 
ATOM     29  C27 LIG d          87.624 166.814  72.820  0.00  0.00    -0.124 C 
ATOM     30  C28 LIG d          87.976 166.427  74.227  0.00  0.00     0.063 C 
ATOM     31  C29 LIG d          87.429 165.646  71.889  0.00  0.00     0.063 C 
ENDBRANCH  27  28
ENDBRANCH  26  27
ENDBRANCH  24  26
ENDBRANCH   6  24
BRANCH  21  32
ATOM     32  O1  LIG d          76.597 164.215  73.676  0.00  0.00    -0.596 OA
ATOM     33  H40 LIG d          76.871 164.763  72.921  0.00  0.00     0.401 HD
ENDBRANCH  21  32
TORSDOF 5
ENDMDL
