@<TRIPOS>MOLECULE
*****
   80    83     1     0     0
SMALL
bcc


@<TRIPOS>ATOM
      1 O            1.6210    -2.9300    -1.6040 O.2        1 LIG      -0.544100
      2 O1           6.2350     1.0290    -0.3960 O.3        1 LIG      -0.595800
      3 C           -0.1890    -0.3590     1.1410 C.3        1 LIG      -0.045000
      4 C1          -0.9560    -1.4360     0.2910 C.3        1 LIG      -0.036000
      5 C2           1.2310    -0.9090     1.4810 C.3        1 LIG      -0.036700
      6 C3           2.0670    -1.3710     0.2250 C.3        1 LIG      -0.117000
      7 C4          -2.3850    -0.8370     0.2680 C.3        1 LIG      -0.052700
      8 C5          -1.1570    -0.2100     2.3370 C.3        1 LIG      -0.075400
      9 C6          -0.2620    -1.5800    -1.0600 C.3        1 LIG      -0.165400
     10 C7          -2.5710    -0.3180     1.7160 C.3        1 LIG      -0.077400
     11 C8           2.8200    -0.1780    -0.4900 C.3        1 LIG      -0.010500
     12 C9           1.1720    -2.0580    -0.8540 C.2        1 LIG       0.572100
     13 C10          2.0690    -0.0150     2.4130 C.3        1 LIG      -0.042200
     14 C11         -0.1210     1.0560     0.4890 C.3        1 LIG      -0.089100
     15 C12         -1.0220    -2.8610     0.9350 C.3        1 LIG      -0.093100
     16 C13         -3.5210    -1.7510    -0.1750 C.3        1 LIG      -0.056700
     17 C14          3.2660     0.9710     0.4210 C.2        1 LIG      -0.109400
     18 C15          3.0660    -2.4460     0.7400 C.3        1 LIG      -0.091100
     19 C16          4.0150    -0.6630    -1.3460 C.3        1 LIG      -0.082400
     20 C17          2.9400     0.9850     1.7260 C.2        1 LIG      -0.165200
     21 C18          4.0390     2.1300    -0.2580 C.3        1 LIG      -0.042800
     22 C19          4.6820     0.4720    -2.1180 C.3        1 LIG      -0.111400
     23 C20          5.1650     1.5710    -1.1750 C.3        1 LIG       0.149100
     24 C21         -4.8670    -0.9970    -0.0890 C.3        1 LIG      -0.074400
     25 C22         -3.2460    -2.2770    -1.5870 C.3        1 LIG      -0.093100
     26 C23          4.6730     3.1340     0.7410 C.3        1 LIG      -0.084100
     27 C24          3.0360     2.9480    -1.1090 C.3        1 LIG      -0.084100
     28 C25         -4.9950     0.2360    -0.9940 C.3        1 LIG      -0.047200
     29 C26         -6.3500     0.8820    -0.9070 C.2        1 LIG      -0.177200
     30 C27         -6.6650     2.1040    -0.4380 C.2        1 LIG      -0.124400
     31 C28         -5.6930     3.1050     0.1170 C.3        1 LIG      -0.057900
     32 C29         -8.0970     2.5720    -0.4430 C.3        1 LIG      -0.057900
     33 H            1.0440    -1.7990     2.0980 H          1 LIG       0.051700
     34 H1          -2.3630     0.0210    -0.4140 H          1 LIG       0.051700
     35 H2          -1.0350     0.7370     2.8740 H          1 LIG       0.044200
     36 H3          -1.0110    -1.0090     3.0730 H          1 LIG       0.044200
     37 H4          -0.2440    -0.6510    -1.6360 H          1 LIG       0.073200
     38 H5          -0.7290    -2.3320    -1.6960 H          1 LIG       0.073200
     39 H6          -3.1790    -0.9910     2.3300 H          1 LIG       0.044700
     40 H7          -3.0650     0.6610     1.7110 H          1 LIG       0.044700
     41 H8           2.1150     0.2550    -1.2090 H          1 LIG       0.054700
     42 H9           2.7190    -0.6430     3.0360 H          1 LIG       0.051700
     43 H10          1.4120     0.5110     3.1150 H          1 LIG       0.051700
     44 H11          0.3630     1.0630    -0.4850 H          1 LIG       0.038700
     45 H12          0.4090     1.7620     1.1360 H          1 LIG       0.038700
     46 H13         -1.1060     1.5080     0.3400 H          1 LIG       0.038700
     47 H14         -1.5490    -2.8660     1.8940 H          1 LIG       0.040033
     48 H15         -0.0350    -3.2960     1.1150 H          1 LIG       0.040033
     49 H16         -1.5340    -3.5780     0.2860 H          1 LIG       0.040033
     50 H17         -3.6140    -2.6120     0.4980 H          1 LIG       0.048700
     51 H18          2.5420    -3.2400     1.2850 H          1 LIG       0.046033
     52 H19          3.6000    -2.9510    -0.0730 H          1 LIG       0.046033
     53 H20          3.8160    -2.0170     1.4120 H          1 LIG       0.046033
     54 H21          3.6840    -1.4160    -2.0690 H          1 LIG       0.057700
     55 H22          4.7760    -1.1370    -0.7150 H          1 LIG       0.057700
     56 H23          3.2650     1.7960     2.3700 H          1 LIG       0.128000
     57 H24          3.9840     0.8780    -2.8590 H          1 LIG       0.054200
     58 H25          5.5320     0.0590    -2.6750 H          1 LIG       0.054200
     59 H26          5.5940     2.3880    -1.7690 H          1 LIG       0.072700
     60 H27         -5.0720    -0.7070     0.9480 H          1 LIG       0.041200
     61 H28         -5.6650    -1.7050    -0.3520 H          1 LIG       0.041200
     62 H29         -4.1780    -2.6350    -2.0400 H          1 LIG       0.036033
     63 H30         -2.8450    -1.5070    -2.2530 H          1 LIG       0.036033
     64 H31         -2.5850    -3.1460    -1.5800 H          1 LIG       0.036033
     65 H32          5.2710     3.8840     0.2110 H          1 LIG       0.039367
     66 H33          5.3360     2.6340     1.4560 H          1 LIG       0.039367
     67 H34          3.9110     3.6800     1.3090 H          1 LIG       0.039367
     68 H35          3.5380     3.7840    -1.6090 H          1 LIG       0.039367
     69 H36          2.2400     3.3700    -0.4820 H          1 LIG       0.039367
     70 H37          2.5500     2.3520    -1.8870 H          1 LIG       0.039367
     71 H38         -4.8430    -0.0570    -2.0400 H          1 LIG       0.048200
     72 H39         -4.2110     0.9600    -0.7690 H          1 LIG       0.048200
     73 H40          6.9380     0.7560    -1.0090 H          1 LIG       0.401000
     74 H41         -7.1600     0.2570    -1.2830 H          1 LIG       0.122000
     75 H42         -5.6620     3.9930    -0.5220 H          1 LIG       0.040367
     76 H43         -4.6740     2.7250     0.2080 H          1 LIG       0.040367
     77 H44         -6.0060     3.4150     1.1210 H          1 LIG       0.040367
     78 H45         -8.1950     3.4830    -1.0430 H          1 LIG       0.040367
     79 H46         -8.4280     2.7900     0.5780 H          1 LIG       0.040367
     80 H47         -8.7800     1.8250    -0.8610 H          1 LIG       0.040367
@<TRIPOS>BOND
     1     1    12 2   
     2     2    23 1   
     3     2    73 1   
     4     3     4 1   
     5     3     5 1   
     6     3     8 1   
     7     3    14 1   
     8     4     7 1   
     9     4     9 1   
    10     4    15 1   
    11     5     6 1   
    12     5    13 1   
    13     5    33 1   
    14     6    11 1   
    15     6    12 1   
    16     6    18 1   
    17     7    10 1   
    18     7    16 1   
    19     7    34 1   
    20     8    10 1   
    21     8    35 1   
    22     8    36 1   
    23     9    12 1   
    24     9    37 1   
    25     9    38 1   
    26    10    39 1   
    27    10    40 1   
    28    11    17 1   
    29    11    19 1   
    30    11    41 1   
    31    13    20 1   
    32    13    42 1   
    33    13    43 1   
    34    14    44 1   
    35    14    45 1   
    36    14    46 1   
    37    15    47 1   
    38    15    48 1   
    39    15    49 1   
    40    16    24 1   
    41    16    25 1   
    42    16    50 1   
    43    17    20 2   
    44    17    21 1   
    45    18    51 1   
    46    18    52 1   
    47    18    53 1   
    48    19    22 1   
    49    19    54 1   
    50    19    55 1   
    51    20    56 1   
    52    21    23 1   
    53    21    26 1   
    54    21    27 1   
    55    22    23 1   
    56    22    57 1   
    57    22    58 1   
    58    23    59 1   
    59    24    28 1   
    60    24    60 1   
    61    24    61 1   
    62    25    62 1   
    63    25    63 1   
    64    25    64 1   
    65    26    65 1   
    66    26    66 1   
    67    26    67 1   
    68    27    68 1   
    69    27    69 1   
    70    27    70 1   
    71    28    29 1   
    72    28    71 1   
    73    28    72 1   
    74    29    30 2   
    75    29    74 1   
    76    30    31 1   
    77    30    32 1   
    78    31    75 1   
    79    31    76 1   
    80    31    77 1   
    81    32    78 1   
    82    32    79 1   
    83    32    80 1   
@<TRIPOS>SUBSTRUCTURE
     1 LIG         1 TEMP              0 ****  ****    0 ROOT
