MODEL 1
REMARK VINA RESULT:      -9.8      0.000      0.000
REMARK  6 active torsions:
REMARK  status: ('A' for Active; 'I' for Inactive)
REMARK    1  A    between atoms: O_1  and  C7_10 
REMARK    2  A    between atoms: O1_2  and  C20_23 
REMARK    3  A    between atoms: C4_7  and  C13_16 
REMARK    4  A    between atoms: C13_16  and  C21_24 
REMARK    5  A    between atoms: C21_24  and  C25_28 
REMARK    6  A    between atoms: C25_28  and  C26_29 
ROOT
ATOM      1  O   LIG d          83.793 164.685  70.583  0.00  0.00    -0.605 OA
ATOM      2  H28 LIG d          84.177 164.162  69.858  0.00  0.00     0.398 HD
ENDROOT
BRANCH   1   3
ATOM      3  C7  LIG d          83.171 163.779  71.492  0.00  0.00     0.176 C 
ATOM      4  C3  LIG d          83.884 163.790  72.913  0.00  0.00    -0.013 C 
ATOM      5  C2  LIG d          82.959 163.127  74.022  0.00  0.00     0.007 C 
ATOM      6  C8  LIG d          84.362 165.258  73.320  0.00  0.00     0.060 C 
ATOM      7  C15 LIG d          85.132 162.861  72.772  0.00  0.00     0.021 C 
ATOM      8  C   LIG d          81.449 163.529  73.925  0.00  0.00    -0.039 C 
ATOM      9  C10 LIG d          83.573 163.263  75.425  0.00  0.00     0.055 C 
ATOM     10  C1  LIG d          80.917 163.183  72.488  0.00  0.00    -0.036 C 
ATOM     11  C6  LIG d          80.463 162.706  74.784  0.00  0.00     0.010 C 
ATOM     12  C11 LIG d          81.219 165.011  74.356  0.00  0.00     0.027 C 
ATOM     13  C4  LIG d          79.399 163.441  72.657  0.00  0.00    -0.003 C 
ATOM     14  C5  LIG d          81.654 164.065  71.479  0.00  0.00    -0.002 C 
ATOM     15  C12 LIG d          81.108 161.689  72.058  0.00  0.00     0.019 C 
ATOM     16  C9  LIG d          79.101 162.845  74.059  0.00  0.00     0.008 C 
ATOM     17  C17 LIG d          84.138 164.607  75.737  0.00  0.00    -0.048 C 
ATOM     18  C14 LIG d          84.454 165.547  74.829  0.00  0.00    -0.107 C 
ATOM     19  C18 LIG d          84.882 166.983  75.230  0.00  0.00    -0.043 C 
ATOM     20  C20 LIG d          86.164 167.397  74.457  0.00  0.00     0.219 C 
ATOM     21  C23 LIG d          83.729 167.956  74.886  0.00  0.00     0.031 C 
ATOM     22  C24 LIG d          85.158 167.161  76.747  0.00  0.00     0.031 C 
ATOM     23  C19 LIG d          86.073 167.130  72.956  0.00  0.00    -0.007 C 
ATOM     24  C16 LIG d          85.715 165.671  72.679  0.00  0.00     0.033 C 
BRANCH  13  25
ATOM     25  C13 LIG d          78.470 162.895  71.578  0.00  0.00    -0.009 C 
ATOM     26  C22 LIG d          77.896 164.050  70.753  0.00  0.00     0.011 C 
BRANCH  25  27
ATOM     27  C21 LIG d          77.361 162.036  72.224  0.00  0.00     0.008 C 
BRANCH  27  28
ATOM     28  C25 LIG d          76.922 160.805  71.417  0.00  0.00     0.050 C 
BRANCH  28  29
ATOM     29  C26 LIG d          78.024 159.795  71.256  0.00  0.00    -0.054 C 
ATOM     30  C27 LIG d          78.647 159.077  72.212  0.00  0.00    -0.124 C 
ATOM     31  C28 LIG d          79.732 158.101  71.840  0.00  0.00     0.064 C 
ATOM     32  C29 LIG d          78.360 159.148  73.685  0.00  0.00     0.064 C 
ENDBRANCH  28  29
ENDBRANCH  27  28
ENDBRANCH  25  27
ENDBRANCH  13  25
BRANCH  20  33
ATOM     33  O1  LIG d          87.292 166.687  74.980  0.00  0.00    -0.599 OA
ATOM     34  H42 LIG d          88.066 166.932  74.447  0.00  0.00     0.401 HD
ENDBRANCH  20  33
ENDBRANCH   1   3
TORSDOF 6
ENDMDL
MODEL 2
REMARK VINA RESULT:      -8.8      2.687      7.597
REMARK  6 active torsions:
REMARK  status: ('A' for Active; 'I' for Inactive)
REMARK    1  A    between atoms: O_1  and  C7_10 
REMARK    2  A    between atoms: O1_2  and  C20_23 
REMARK    3  A    between atoms: C4_7  and  C13_16 
REMARK    4  A    between atoms: C13_16  and  C21_24 
REMARK    5  A    between atoms: C21_24  and  C25_28 
REMARK    6  A    between atoms: C25_28  and  C26_29 
ROOT
ATOM      1  O   LIG d          82.545 164.305  76.491  0.00  0.00    -0.605 OA
ATOM      2  H28 LIG d          82.955 163.707  77.140  0.00  0.00     0.398 HD
ENDROOT
BRANCH   1   3
ATOM      3  C7  LIG d          82.871 163.826  75.188  0.00  0.00     0.176 C 
ATOM      4  C3  LIG d          81.569 163.562  74.315  0.00  0.00    -0.013 C 
ATOM      5  C2  LIG d          81.930 163.445  72.772  0.00  0.00     0.007 C 
ATOM      6  C8  LIG d          80.442 164.659  74.594  0.00  0.00     0.060 C 
ATOM      7  C15 LIG d          81.041 162.157  74.748  0.00  0.00     0.021 C 
ATOM      8  C   LIG d          82.979 164.496  72.275  0.00  0.00    -0.039 C 
ATOM      9  C10 LIG d          80.665 163.339  71.903  0.00  0.00     0.055 C 
ATOM     10  C1  LIG d          84.278 164.377  73.152  0.00  0.00    -0.036 C 
ATOM     11  C6  LIG d          83.579 164.255  70.871  0.00  0.00     0.010 C 
ATOM     12  C11 LIG d          82.373 165.932  72.214  0.00  0.00     0.027 C 
ATOM     13  C4  LIG d          85.246 165.314  72.387  0.00  0.00    -0.003 C 
ATOM     14  C5  LIG d          83.925 164.779  74.585  0.00  0.00    -0.002 C 
ATOM     15  C12 LIG d          84.917 162.947  73.191  0.00  0.00     0.019 C 
ATOM     16  C9  LIG d          84.949 164.979  70.901  0.00  0.00     0.008 C 
ATOM     17  C17 LIG d          79.569 164.281  72.268  0.00  0.00    -0.048 C 
ATOM     18  C14 LIG d          79.462 164.932  73.440  0.00  0.00    -0.107 C 
ATOM     19  C18 LIG d          78.389 166.023  73.692  0.00  0.00    -0.043 C 
ATOM     20  C20 LIG d          77.671 165.767  75.046  0.00  0.00     0.219 C 
ATOM     21  C23 LIG d          79.086 167.405  73.724  0.00  0.00     0.031 C 
ATOM     22  C24 LIG d          77.305 166.113  72.584  0.00  0.00     0.031 C 
ATOM     23  C19 LIG d          78.639 165.513  76.200  0.00  0.00    -0.007 C 
ATOM     24  C16 LIG d          79.601 164.374  75.869  0.00  0.00     0.033 C 
BRANCH  13  25
ATOM     25  C13 LIG d          86.730 165.215  72.724  0.00  0.00    -0.009 C 
ATOM     26  C22 LIG d          86.931 165.372  74.234  0.00  0.00     0.011 C 
BRANCH  25  27
ATOM     27  C21 LIG d          87.523 166.268  71.921  0.00  0.00     0.008 C 
BRANCH  27  28
ATOM     28  C25 LIG d          87.594 167.667  72.549  0.00  0.00     0.050 C 
BRANCH  28  29
ATOM     29  C26 LIG d          86.470 168.560  72.102  0.00  0.00    -0.054 C 
ATOM     30  C27 LIG d          85.378 168.941  72.794  0.00  0.00    -0.124 C 
ATOM     31  C28 LIG d          84.363 169.857  72.163  0.00  0.00     0.064 C 
ATOM     32  C29 LIG d          85.047 168.530  74.200  0.00  0.00     0.064 C 
ENDBRANCH  28  29
ENDBRANCH  27  28
ENDBRANCH  25  27
ENDBRANCH  13  25
BRANCH  20  33
ATOM     33  O1  LIG d          76.799 164.638  74.923  0.00  0.00    -0.599 OA
ATOM     34  H42 LIG d          77.293 163.853  75.212  0.00  0.00     0.401 HD
ENDBRANCH  20  33
ENDBRANCH   1   3
TORSDOF 6
ENDMDL
MODEL 3
REMARK VINA RESULT:      -8.3      1.365      1.815
REMARK  6 active torsions:
REMARK  status: ('A' for Active; 'I' for Inactive)
REMARK    1  A    between atoms: O_1  and  C7_10 
REMARK    2  A    between atoms: O1_2  and  C20_23 
REMARK    3  A    between atoms: C4_7  and  C13_16 
REMARK    4  A    between atoms: C13_16  and  C21_24 
REMARK    5  A    between atoms: C21_24  and  C25_28 
REMARK    6  A    between atoms: C25_28  and  C26_29 
ROOT
ATOM      1  O   LIG d          84.500 165.472  70.370  0.00  0.00    -0.605 OA
ATOM      2  H28 LIG d          84.107 165.146  69.543  0.00  0.00     0.398 HD
ENDROOT
BRANCH   1   3
ATOM      3  C7  LIG d          84.199 164.531  71.399  0.00  0.00     0.176 C 
ATOM      4  C3  LIG d          84.793 164.982  72.802  0.00  0.00    -0.013 C 
ATOM      5  C2  LIG d          84.113 164.183  73.995  0.00  0.00     0.007 C 
ATOM      6  C8  LIG d          84.698 166.564  73.000  0.00  0.00     0.060 C 
ATOM      7  C15 LIG d          86.295 164.554  72.789  0.00  0.00     0.021 C 
ATOM      8  C   LIG d          82.565 164.001  73.848  0.00  0.00    -0.039 C 
ATOM      9  C10 LIG d          84.571 164.714  75.364  0.00  0.00     0.055 C 
ATOM     10  C1  LIG d          82.260 163.301  72.474  0.00  0.00    -0.036 C 
ATOM     11  C6  LIG d          81.897 162.998  74.815  0.00  0.00     0.010 C 
ATOM     12  C11 LIG d          81.803 165.345  74.069  0.00  0.00     0.027 C 
ATOM     13  C4  LIG d          80.743 163.018  72.609  0.00  0.00    -0.003 C 
ATOM     14  C5  LIG d          82.682 164.249  71.350  0.00  0.00    -0.002 C 
ATOM     15  C12 LIG d          82.990 161.933  72.256  0.00  0.00     0.019 C 
ATOM     16  C9  LIG d          80.610 162.544  74.082  0.00  0.00     0.008 C 
ATOM     17  C17 LIG d          84.606 166.199  75.484  0.00  0.00    -0.048 C 
ATOM     18  C14 LIG d          84.609 167.062  74.453  0.00  0.00    -0.107 C 
ATOM     19  C18 LIG d          84.479 168.595  74.649  0.00  0.00    -0.043 C 
ATOM     20  C20 LIG d          85.566 169.336  73.822  0.00  0.00     0.219 C 
ATOM     21  C23 LIG d          83.073 169.036  74.176  0.00  0.00     0.031 C 
ATOM     22  C24 LIG d          84.602 169.057  76.126  0.00  0.00     0.031 C 
ATOM     23  C19 LIG d          85.646 168.860  72.373  0.00  0.00    -0.007 C 
ATOM     24  C16 LIG d          85.845 167.348  72.303  0.00  0.00     0.033 C 
BRANCH  13  25
ATOM     25  C13 LIG d          80.121 162.038  71.620  0.00  0.00    -0.009 C 
ATOM     26  C22 LIG d          78.707 162.497  71.253  0.00  0.00     0.011 C 
BRANCH  25  27
ATOM     27  C21 LIG d          80.133 160.613  72.212  0.00  0.00     0.008 C 
BRANCH  27  28
ATOM     28  C25 LIG d          78.762 159.931  72.327  0.00  0.00     0.050 C 
BRANCH  28  29
ATOM     29  C26 LIG d          78.868 158.465  72.641  0.00  0.00    -0.054 C 
ATOM     30  C27 LIG d          79.165 157.881  73.819  0.00  0.00    -0.124 C 
ATOM     31  C28 LIG d          79.214 156.380  73.930  0.00  0.00     0.064 C 
ATOM     32  C29 LIG d          79.467 158.603  75.101  0.00  0.00     0.064 C 
ENDBRANCH  28  29
ENDBRANCH  27  28
ENDBRANCH  25  27
ENDBRANCH  13  25
BRANCH  20  33
ATOM     33  O1  LIG d          86.846 169.153  74.436  0.00  0.00    -0.599 OA
ATOM     34  H42 LIG d          86.819 168.316  74.929  0.00  0.00     0.401 HD
ENDBRANCH  20  33
ENDBRANCH   1   3
TORSDOF 6
ENDMDL
MODEL 4
REMARK VINA RESULT:      -8.3      2.092      7.995
REMARK  6 active torsions:
REMARK  status: ('A' for Active; 'I' for Inactive)
REMARK    1  A    between atoms: O_1  and  C7_10 
REMARK    2  A    between atoms: O1_2  and  C20_23 
REMARK    3  A    between atoms: C4_7  and  C13_16 
REMARK    4  A    between atoms: C13_16  and  C21_24 
REMARK    5  A    between atoms: C21_24  and  C25_28 
REMARK    6  A    between atoms: C25_28  and  C26_29 
ROOT
ATOM      1  O   LIG d          80.268 166.636  71.550  0.00  0.00    -0.605 OA
ATOM      2  H28 LIG d          79.756 165.859  71.267  0.00  0.00     0.398 HD
ENDROOT
BRANCH   1   3
ATOM      3  C7  LIG d          80.969 166.287  72.743  0.00  0.00     0.176 C 
ATOM      4  C3  LIG d          80.175 165.207  73.597  0.00  0.00    -0.013 C 
ATOM      5  C2  LIG d          81.122 164.518  74.671  0.00  0.00     0.007 C 
ATOM      6  C8  LIG d          79.442 164.140  72.661  0.00  0.00     0.060 C 
ATOM      7  C15 LIG d          79.103 166.005  74.407  0.00  0.00     0.021 C 
ATOM      8  C   LIG d          82.551 164.165  74.137  0.00  0.00    -0.039 C 
ATOM      9  C10 LIG d          80.406 163.370  75.402  0.00  0.00     0.055 C 
ATOM     10  C1  LIG d          83.222 165.467  73.568  0.00  0.00    -0.036 C 
ATOM     11  C6  LIG d          83.600 163.762  75.197  0.00  0.00     0.010 C 
ATOM     12  C11 LIG d          82.511 162.970  73.133  0.00  0.00     0.027 C 
ATOM     13  C4  LIG d          84.665 164.971  73.299  0.00  0.00    -0.003 C 
ATOM     14  C5  LIG d          82.418 165.927  72.351  0.00  0.00    -0.002 C 
ATOM     15  C12 LIG d          83.301 166.661  74.578  0.00  0.00     0.019 C 
ATOM     16  C9  LIG d          84.965 164.092  74.543  0.00  0.00     0.008 C 
ATOM     17  C17 LIG d          79.614 162.462  74.524  0.00  0.00    -0.048 C 
ATOM     18  C14 LIG d          79.209 162.748  73.274  0.00  0.00    -0.107 C 
ATOM     19  C18 LIG d          78.532 161.697  72.357  0.00  0.00    -0.043 C 
ATOM     20  C20 LIG d          77.251 162.294  71.710  0.00  0.00     0.219 C 
ATOM     21  C23 LIG d          79.533 161.288  71.249  0.00  0.00     0.031 C 
ATOM     22  C24 LIG d          78.134 160.384  73.084  0.00  0.00     0.031 C 
ATOM     23  C19 LIG d          77.479 163.668  71.084  0.00  0.00    -0.007 C 
ATOM     24  C16 LIG d          78.083 164.638  72.097  0.00  0.00     0.033 C 
BRANCH  13  25
ATOM     25  C13 LIG d          85.736 166.028  73.056  0.00  0.00    -0.009 C 
ATOM     26  C22 LIG d          86.100 166.067  71.570  0.00  0.00     0.011 C 
BRANCH  25  27
ATOM     27  C21 LIG d          86.965 165.748  73.948  0.00  0.00     0.008 C 
BRANCH  27  28
ATOM     28  C25 LIG d          87.619 166.984  74.583  0.00  0.00     0.050 C 
BRANCH  28  29
ATOM     29  C26 LIG d          86.662 168.133  74.733  0.00  0.00    -0.054 C 
ATOM     30  C27 LIG d          85.909 168.461  75.802  0.00  0.00    -0.124 C 
ATOM     31  C28 LIG d          85.010 169.669  75.755  0.00  0.00     0.064 C 
ATOM     32  C29 LIG d          85.867 167.714  77.104  0.00  0.00     0.064 C 
ENDBRANCH  28  29
ENDBRANCH  27  28
ENDBRANCH  25  27
ENDBRANCH  13  25
BRANCH  20  33
ATOM     33  O1  LIG d          76.221 162.406  72.698  0.00  0.00    -0.599 OA
ATOM     34  H42 LIG d          76.653 162.525  73.561  0.00  0.00     0.401 HD
ENDBRANCH  20  33
ENDBRANCH   1   3
TORSDOF 6
ENDMDL
MODEL 5
REMARK VINA RESULT:      -8.3      2.479      8.005
REMARK  6 active torsions:
REMARK  status: ('A' for Active; 'I' for Inactive)
REMARK    1  A    between atoms: O_1  and  C7_10 
REMARK    2  A    between atoms: O1_2  and  C20_23 
REMARK    3  A    between atoms: C4_7  and  C13_16 
REMARK    4  A    between atoms: C13_16  and  C21_24 
REMARK    5  A    between atoms: C21_24  and  C25_28 
REMARK    6  A    between atoms: C25_28  and  C26_29 
ROOT
ATOM      1  O   LIG d          83.712 165.286  76.558  0.00  0.00    -0.605 OA
ATOM      2  H28 LIG d          84.243 165.478  77.349  0.00  0.00     0.398 HD
ENDROOT
BRANCH   1   3
ATOM      3  C7  LIG d          84.604 165.153  75.453  0.00  0.00     0.176 C 
ATOM      4  C3  LIG d          84.189 163.949  74.502  0.00  0.00    -0.013 C 
ATOM      5  C2  LIG d          84.902 164.066  73.087  0.00  0.00     0.007 C 
ATOM      6  C8  LIG d          82.602 163.823  74.373  0.00  0.00     0.060 C 
ATOM      7  C15 LIG d          84.756 162.658  75.173  0.00  0.00     0.021 C 
ATOM      8  C   LIG d          84.941 165.518  72.504  0.00  0.00    -0.039 C 
ATOM      9  C10 LIG d          84.395 162.992  72.109  0.00  0.00     0.055 C 
ATOM     10  C1  LIG d          85.630 166.471  73.546  0.00  0.00    -0.036 C 
ATOM     11  C6  LIG d          85.862 165.743  71.283  0.00  0.00     0.010 C 
ATOM     12  C11 LIG d          83.529 165.989  72.037  0.00  0.00     0.027 C 
ATOM     13  C4  LIG d          85.768 167.774  72.719  0.00  0.00    -0.003 C 
ATOM     14  C5  LIG d          84.744 166.540  74.790  0.00  0.00    -0.002 C 
ATOM     15  C12 LIG d          87.064 166.028  73.995  0.00  0.00     0.019 C 
ATOM     16  C9  LIG d          86.205 167.253  71.324  0.00  0.00     0.008 C 
ATOM     17  C17 LIG d          82.918 162.794  72.102  0.00  0.00    -0.048 C 
ATOM     18  C14 LIG d          82.075 163.198  73.069  0.00  0.00    -0.107 C 
ATOM     19  C18 LIG d          80.534 163.106  72.922  0.00  0.00    -0.043 C 
ATOM     20  C20 LIG d          79.911 162.467  74.194  0.00  0.00     0.219 C 
ATOM     21  C23 LIG d          79.971 164.535  72.728  0.00  0.00     0.031 C 
ATOM     22  C24 LIG d          80.063 162.286  71.692  0.00  0.00     0.031 C 
ATOM     23  C19 LIG d          80.415 163.095  75.491  0.00  0.00    -0.007 C 
ATOM     24  C16 LIG d          81.940 163.066  75.558  0.00  0.00     0.033 C 
BRANCH  13  25
ATOM     25  C13 LIG d          86.701 168.852  73.260  0.00  0.00    -0.009 C 
ATOM     26  C22 LIG d          86.192 169.345  74.618  0.00  0.00     0.011 C 
BRANCH  25  27
ATOM     27  C21 LIG d          86.828 170.000  72.237  0.00  0.00     0.008 C 
BRANCH  27  28
ATOM     28  C25 LIG d          85.924 171.216  72.488  0.00  0.00     0.050 C 
BRANCH  28  29
ATOM     29  C26 LIG d          84.748 171.267  71.553  0.00  0.00    -0.054 C 
ATOM     30  C27 LIG d          83.488 170.840  71.770  0.00  0.00    -0.124 C 
ATOM     31  C28 LIG d          82.442 170.990  70.697  0.00  0.00     0.064 C 
ATOM     32  C29 LIG d          82.987 170.200  73.033  0.00  0.00     0.064 C 
ENDBRANCH  28  29
ENDBRANCH  27  28
ENDBRANCH  25  27
ENDBRANCH  13  25
BRANCH  20  33
ATOM     33  O1  LIG d          80.203 161.066  74.220  0.00  0.00    -0.599 OA
ATOM     34  H42 LIG d          81.068 160.954  74.647  0.00  0.00     0.401 HD
ENDBRANCH  20  33
ENDBRANCH   1   3
TORSDOF 6
ENDMDL
MODEL 6
REMARK VINA RESULT:      -8.2      2.727      4.692
REMARK  6 active torsions:
REMARK  status: ('A' for Active; 'I' for Inactive)
REMARK    1  A    between atoms: O_1  and  C7_10 
REMARK    2  A    between atoms: O1_2  and  C20_23 
REMARK    3  A    between atoms: C4_7  and  C13_16 
REMARK    4  A    between atoms: C13_16  and  C21_24 
REMARK    5  A    between atoms: C21_24  and  C25_28 
REMARK    6  A    between atoms: C25_28  and  C26_29 
ROOT
ATOM      1  O   LIG d          86.802 167.174  71.770  0.00  0.00    -0.605 OA
ATOM      2  H28 LIG d          87.602 166.631  71.875  0.00  0.00     0.398 HD
ENDROOT
BRANCH   1   3
ATOM      3  C7  LIG d          85.900 166.831  72.820  0.00  0.00     0.176 C 
ATOM      4  C3  LIG d          85.467 168.106  73.664  0.00  0.00    -0.013 C 
ATOM      5  C2  LIG d          84.170 167.805  74.532  0.00  0.00     0.007 C 
ATOM      6  C8  LIG d          85.288 169.393  72.735  0.00  0.00     0.060 C 
ATOM      7  C15 LIG d          86.624 168.361  74.681  0.00  0.00     0.021 C 
ATOM      8  C   LIG d          83.071 166.979  73.782  0.00  0.00    -0.039 C 
ATOM      9  C10 LIG d          83.655 169.071  75.237  0.00  0.00     0.055 C 
ATOM     10  C1  LIG d          83.704 165.640  73.258  0.00  0.00    -0.036 C 
ATOM     11  C6  LIG d          81.925 166.414  74.651  0.00  0.00     0.010 C 
ATOM     12  C11 LIG d          82.362 167.829  72.682  0.00  0.00     0.027 C 
ATOM     13  C4  LIG d          82.447 164.887  72.755  0.00  0.00    -0.003 C 
ATOM     14  C5  LIG d          84.760 165.989  72.208  0.00  0.00    -0.002 C 
ATOM     15  C12 LIG d          84.387 164.760  74.359  0.00  0.00     0.019 C 
ATOM     16  C9  LIG d          81.398 165.192  73.858  0.00  0.00     0.008 C 
ATOM     17  C17 LIG d          83.625 170.296  74.388  0.00  0.00    -0.048 C 
ATOM     18  C14 LIG d          84.299 170.459  73.235  0.00  0.00    -0.107 C 
ATOM     19  C18 LIG d          84.094 171.693  72.319  0.00  0.00    -0.043 C 
ATOM     20  C20 LIG d          85.468 172.291  71.908  0.00  0.00     0.219 C 
ATOM     21  C23 LIG d          83.320 171.248  71.055  0.00  0.00     0.031 C 
ATOM     22  C24 LIG d          83.251 172.827  72.962  0.00  0.00     0.031 C 
ATOM     23  C19 LIG d          86.449 171.241  71.392  0.00  0.00    -0.007 C 
ATOM     24  C16 LIG d          86.626 170.111  72.405  0.00  0.00     0.033 C 
BRANCH  13  25
ATOM     25  C13 LIG d          82.588 163.395  72.476  0.00  0.00    -0.009 C 
ATOM     26  C22 LIG d          82.901 163.171  70.994  0.00  0.00     0.011 C 
BRANCH  25  27
ATOM     27  C21 LIG d          81.308 162.653  72.917  0.00  0.00     0.008 C 
BRANCH  27  28
ATOM     28  C25 LIG d          80.576 161.879  71.811  0.00  0.00     0.050 C 
BRANCH  28  29
ATOM     29  C26 LIG d          79.299 162.549  71.384  0.00  0.00    -0.054 C 
ATOM     30  C27 LIG d          78.089 161.991  71.181  0.00  0.00    -0.124 C 
ATOM     31  C28 LIG d          76.922 162.844  70.759  0.00  0.00     0.064 C 
ATOM     32  C29 LIG d          77.761 160.533  71.339  0.00  0.00     0.064 C 
ENDBRANCH  28  29
ENDBRANCH  27  28
ENDBRANCH  25  27
ENDBRANCH  13  25
BRANCH  20  33
ATOM     33  O1  LIG d          86.058 172.957  73.029  0.00  0.00    -0.599 OA
ATOM     34  H42 LIG d          86.809 173.479  72.700  0.00  0.00     0.401 HD
ENDBRANCH  20  33
ENDBRANCH   1   3
TORSDOF 6
ENDMDL
MODEL 7
REMARK VINA RESULT:      -8.0      1.662      3.156
REMARK  6 active torsions:
REMARK  status: ('A' for Active; 'I' for Inactive)
REMARK    1  A    between atoms: O_1  and  C7_10 
REMARK    2  A    between atoms: O1_2  and  C20_23 
REMARK    3  A    between atoms: C4_7  and  C13_16 
REMARK    4  A    between atoms: C13_16  and  C21_24 
REMARK    5  A    between atoms: C21_24  and  C25_28 
REMARK    6  A    between atoms: C25_28  and  C26_29 
ROOT
ATOM      1  O   LIG d          85.669 163.571  74.792  0.00  0.00    -0.605 OA
ATOM      2  H28 LIG d          85.691 162.722  75.264  0.00  0.00     0.398 HD
ENDROOT
BRANCH   1   3
ATOM      3  C7  LIG d          84.320 164.033  74.783  0.00  0.00     0.176 C 
ATOM      4  C3  LIG d          84.240 165.620  74.821  0.00  0.00    -0.013 C 
ATOM      5  C2  LIG d          82.799 166.130  74.389  0.00  0.00     0.007 C 
ATOM      6  C8  LIG d          85.405 166.288  73.957  0.00  0.00     0.060 C 
ATOM      7  C15 LIG d          84.415 166.022  76.320  0.00  0.00     0.021 C 
ATOM      8  C   LIG d          82.185 165.367  73.167  0.00  0.00    -0.039 C 
ATOM      9  C10 LIG d          82.753 167.664  74.278  0.00  0.00     0.055 C 
ATOM     10  C1  LIG d          82.148 163.830  73.490  0.00  0.00    -0.036 C 
ATOM     11  C6  LIG d          80.687 165.619  72.883  0.00  0.00     0.010 C 
ATOM     12  C11 LIG d          82.915 165.728  71.836  0.00  0.00     0.027 C 
ATOM     13  C4  LIG d          81.331 163.288  72.290  0.00  0.00    -0.003 C 
ATOM     14  C5  LIG d          83.589 163.333  73.617  0.00  0.00    -0.002 C 
ATOM     15  C12 LIG d          81.386 163.451  74.805  0.00  0.00     0.019 C 
ATOM     16  C9  LIG d          80.214 164.353  72.125  0.00  0.00     0.008 C 
ATOM     17  C17 LIG d          83.920 168.281  73.586  0.00  0.00    -0.048 C 
ATOM     18  C14 LIG d          85.104 167.680  73.375  0.00  0.00    -0.107 C 
ATOM     19  C18 LIG d          86.218 168.318  72.504  0.00  0.00    -0.043 C 
ATOM     20  C20 LIG d          87.582 168.255  73.246  0.00  0.00     0.219 C 
ATOM     21  C23 LIG d          86.312 167.535  71.172  0.00  0.00     0.031 C 
ATOM     22  C24 LIG d          85.950 169.797  72.117  0.00  0.00     0.031 C 
ATOM     23  C19 LIG d          87.895 166.871  73.810  0.00  0.00    -0.007 C 
ATOM     24  C16 LIG d          86.763 166.375  74.707  0.00  0.00     0.033 C 
BRANCH  13  25
ATOM     25  C13 LIG d          80.778 161.871  72.401  0.00  0.00    -0.009 C 
ATOM     26  C22 LIG d          81.570 160.932  71.487  0.00  0.00     0.011 C 
BRANCH  25  27
ATOM     27  C21 LIG d          79.270 161.867  72.070  0.00  0.00     0.008 C 
BRANCH  27  28
ATOM     28  C25 LIG d          78.380 161.078  73.042  0.00  0.00     0.050 C 
BRANCH  28  29
ATOM     29  C26 LIG d          78.949 159.730  73.383  0.00  0.00    -0.054 C 
ATOM     30  C27 LIG d          78.962 158.612  72.631  0.00  0.00    -0.124 C 
ATOM     31  C28 LIG d          79.596 157.351  73.157  0.00  0.00     0.064 C 
ATOM     32  C29 LIG d          78.384 158.481  71.250  0.00  0.00     0.064 C 
ENDBRANCH  28  29
ENDBRANCH  27  28
ENDBRANCH  25  27
ENDBRANCH  13  25
BRANCH  20  33
ATOM     33  O1  LIG d          87.589 169.200  74.321  0.00  0.00    -0.599 OA
ATOM     34  H42 LIG d          88.516 169.402  74.529  0.00  0.00     0.401 HD
ENDBRANCH  20  33
ENDBRANCH   1   3
TORSDOF 6
ENDMDL
MODEL 8
REMARK VINA RESULT:      -7.9      2.968      4.666
REMARK  6 active torsions:
REMARK  status: ('A' for Active; 'I' for Inactive)
REMARK    1  A    between atoms: O_1  and  C7_10 
REMARK    2  A    between atoms: O1_2  and  C20_23 
REMARK    3  A    between atoms: C4_7  and  C13_16 
REMARK    4  A    between atoms: C13_16  and  C21_24 
REMARK    5  A    between atoms: C21_24  and  C25_28 
REMARK    6  A    between atoms: C25_28  and  C26_29 
ROOT
ATOM      1  O   LIG d          81.928 167.258  72.233  0.00  0.00    -0.605 OA
ATOM      2  H28 LIG d          81.571 167.282  71.329  0.00  0.00     0.398 HD
ENDROOT
BRANCH   1   3
ATOM      3  C7  LIG d          81.896 165.903  72.680  0.00  0.00     0.176 C 
ATOM      4  C3  LIG d          83.337 165.234  72.630  0.00  0.00    -0.013 C 
ATOM      5  C2  LIG d          83.381 163.908  73.505  0.00  0.00     0.007 C 
ATOM      6  C8  LIG d          84.481 166.269  73.040  0.00  0.00     0.060 C 
ATOM      7  C15 LIG d          83.551 164.788  71.148  0.00  0.00     0.021 C 
ATOM      8  C   LIG d          82.641 164.018  74.879  0.00  0.00    -0.039 C 
ATOM      9  C10 LIG d          84.805 163.332  73.585  0.00  0.00     0.055 C 
ATOM     10  C1  LIG d          81.154 164.459  74.626  0.00  0.00    -0.036 C 
ATOM     11  C6  LIG d          82.404 162.694  75.640  0.00  0.00     0.010 C 
ATOM     12  C11 LIG d          83.419 164.926  75.882  0.00  0.00     0.027 C 
ATOM     13  C4  LIG d          80.546 164.302  76.043  0.00  0.00    -0.003 C 
ATOM     14  C5  LIG d          81.167 165.871  74.039  0.00  0.00    -0.002 C 
ATOM     15  C12 LIG d          80.350 163.534  73.650  0.00  0.00     0.019 C 
ATOM     16  C9  LIG d          81.178 162.975  76.544  0.00  0.00     0.008 C 
ATOM     17  C17 LIG d          85.878 164.337  73.834  0.00  0.00    -0.048 C 
ATOM     18  C14 LIG d          85.756 165.664  73.653  0.00  0.00    -0.107 C 
ATOM     19  C18 LIG d          86.855 166.668  74.087  0.00  0.00    -0.043 C 
ATOM     20  C20 LIG d          87.155 167.667  72.936  0.00  0.00     0.219 C 
ATOM     21  C23 LIG d          86.355 167.442  75.331  0.00  0.00     0.031 C 
ATOM     22  C24 LIG d          88.193 166.001  74.504  0.00  0.00     0.031 C 
ATOM     23  C19 LIG d          85.895 168.286  72.335  0.00  0.00    -0.007 C 
ATOM     24  C16 LIG d          84.917 167.205  71.879  0.00  0.00     0.033 C 
BRANCH  13  25
ATOM     25  C13 LIG d          79.026 164.308  76.159  0.00  0.00    -0.009 C 
ATOM     26  C22 LIG d          78.519 165.749  76.264  0.00  0.00     0.011 C 
BRANCH  25  27
ATOM     27  C21 LIG d          78.586 163.449  77.364  0.00  0.00     0.008 C 
BRANCH  27  28
ATOM     28  C25 LIG d          78.973 163.997  78.745  0.00  0.00     0.050 C 
BRANCH  28  29
ATOM     29  C26 LIG d          79.359 162.911  79.711  0.00  0.00    -0.054 C 
ATOM     30  C27 LIG d          79.598 163.014  81.034  0.00  0.00    -0.124 C 
ATOM     31  C28 LIG d          79.968 161.794  81.835  0.00  0.00     0.064 C 
ATOM     32  C29 LIG d          79.532 164.282  81.838  0.00  0.00     0.064 C 
ENDBRANCH  28  29
ENDBRANCH  27  28
ENDBRANCH  25  27
ENDBRANCH  13  25
BRANCH  20  33
ATOM     33  O1  LIG d          87.878 167.000  71.896  0.00  0.00    -0.599 OA
ATOM     34  H42 LIG d          87.384 166.196  71.663  0.00  0.00     0.401 HD
ENDBRANCH  20  33
ENDBRANCH   1   3
TORSDOF 6
ENDMDL
MODEL 9
REMARK VINA RESULT:      -7.8      2.795      4.870
REMARK  6 active torsions:
REMARK  status: ('A' for Active; 'I' for Inactive)
REMARK    1  A    between atoms: O_1  and  C7_10 
REMARK    2  A    between atoms: O1_2  and  C20_23 
REMARK    3  A    between atoms: C4_7  and  C13_16 
REMARK    4  A    between atoms: C13_16  and  C21_24 
REMARK    5  A    between atoms: C21_24  and  C25_28 
REMARK    6  A    between atoms: C25_28  and  C26_29 
ROOT
ATOM      1  O   LIG d          86.614 167.120  71.871  0.00  0.00    -0.605 OA
ATOM      2  H28 LIG d          87.226 167.778  72.241  0.00  0.00     0.398 HD
ENDROOT
BRANCH   1   3
ATOM      3  C7  LIG d          85.627 166.836  72.861  0.00  0.00     0.176 C 
ATOM      4  C3  LIG d          85.236 168.134  73.691  0.00  0.00    -0.013 C 
ATOM      5  C2  LIG d          83.870 167.921  74.475  0.00  0.00     0.007 C 
ATOM      6  C8  LIG d          85.207 169.436  72.766  0.00  0.00     0.060 C 
ATOM      7  C15 LIG d          86.344 168.298  74.779  0.00  0.00     0.021 C 
ATOM      8  C   LIG d          82.763 167.182  73.652  0.00  0.00    -0.039 C 
ATOM      9  C10 LIG d          83.405 169.217  75.161  0.00  0.00     0.055 C 
ATOM     10  C1  LIG d          83.330 165.804  73.153  0.00  0.00    -0.036 C 
ATOM     11  C6  LIG d          81.529 166.695  74.444  0.00  0.00     0.010 C 
ATOM     12  C11 LIG d          82.185 168.088  72.520  0.00  0.00     0.027 C 
ATOM     13  C4  LIG d          82.055 165.147  72.566  0.00  0.00    -0.003 C 
ATOM     14  C5  LIG d          84.470 166.083  72.172  0.00  0.00    -0.002 C 
ATOM     15  C12 LIG d          83.879 164.870  74.283  0.00  0.00     0.019 C 
ATOM     16  C9  LIG d          80.965 165.519  73.607  0.00  0.00     0.008 C 
ATOM     17  C17 LIG d          83.515 170.446  74.325  0.00  0.00    -0.048 C 
ATOM     18  C14 LIG d          84.267 170.568  73.218  0.00  0.00    -0.107 C 
ATOM     19  C18 LIG d          84.208 171.819  72.304  0.00  0.00    -0.043 C 
ATOM     20  C20 LIG d          85.644 172.319  71.983  0.00  0.00     0.219 C 
ATOM     21  C23 LIG d          83.483 171.439  70.990  0.00  0.00     0.031 C 
ATOM     22  C24 LIG d          83.411 173.007  72.907  0.00  0.00     0.031 C 
ATOM     23  C19 LIG d          86.577 171.204  71.516  0.00  0.00    -0.007 C 
ATOM     24  C16 LIG d          86.611 170.058  72.526  0.00  0.00     0.033 C 
BRANCH  13  25
ATOM     25  C13 LIG d          82.105 163.650  72.280  0.00  0.00    -0.009 C 
ATOM     26  C22 LIG d          82.989 163.384  71.058  0.00  0.00     0.011 C 
BRANCH  25  27
ATOM     27  C21 LIG d          80.675 163.102  72.092  0.00  0.00     0.008 C 
BRANCH  27  28
ATOM     28  C25 LIG d          80.287 161.933  73.010  0.00  0.00     0.050 C 
BRANCH  28  29
ATOM     29  C26 LIG d          79.689 162.393  74.311  0.00  0.00    -0.054 C 
ATOM     30  C27 LIG d          80.306 162.586  75.493  0.00  0.00    -0.124 C 
ATOM     31  C28 LIG d          79.523 163.063  76.688  0.00  0.00     0.064 C 
ATOM     32  C29 LIG d          81.768 162.367  75.763  0.00  0.00     0.064 C 
ENDBRANCH  28  29
ENDBRANCH  27  28
ENDBRANCH  25  27
ENDBRANCH  13  25
BRANCH  20  33
ATOM     33  O1  LIG d          86.210 172.934  73.145  0.00  0.00    -0.599 OA
ATOM     34  H42 LIG d          86.423 173.854  72.917  0.00  0.00     0.401 HD
ENDBRANCH  20  33
ENDBRANCH   1   3
TORSDOF 6
ENDMDL
