REMARK  6 active torsions:
REMARK  status: ('A' for Active; 'I' for Inactive)
REMARK    1  A    between atoms: O_1  and  C7_10 
REMARK    2  A    between atoms: O1_2  and  C20_23 
REMARK    3  A    between atoms: C4_7  and  C13_16 
REMARK    4  A    between atoms: C13_16  and  C21_24 
REMARK    5  A    between atoms: C21_24  and  C25_28 
REMARK    6  A    between atoms: C25_28  and  C26_29 
ROOT
ATOM      1  O   LIG d          -1.768  -2.272   2.170  0.00  0.00    -0.605 OA
ATOM      2  H28 LIG d          -1.203  -2.820   2.741  0.00  0.00     0.398 HD
ENDROOT
BRANCH   1   3
ATOM      3  C7  LIG d          -1.162  -2.216   0.880  0.00  0.00     0.176 C 
ATOM      4  C3  LIG d          -2.082  -1.456  -0.170  0.00  0.00    -0.013 C 
ATOM      5  C2  LIG d          -1.250  -1.027  -1.454  0.00  0.00     0.007 C 
ATOM      6  C8  LIG d          -2.843  -0.222   0.500  0.00  0.00     0.060 C 
ATOM      7  C15 LIG d          -3.131  -2.505  -0.659  0.00  0.00     0.021 C 
ATOM      8  C   LIG d           0.174  -0.458  -1.138  0.00  0.00    -0.039 C 
ATOM      9  C10 LIG d          -2.091  -0.163  -2.409  0.00  0.00     0.055 C 
ATOM     10  C1  LIG d           0.973  -1.516  -0.295  0.00  0.00    -0.036 C 
ATOM     11  C6  LIG d           1.130  -0.294  -2.341  0.00  0.00     0.010 C 
ATOM     12  C11 LIG d           0.097   0.958  -0.487  0.00  0.00     0.027 C 
ATOM     13  C4  LIG d           2.386  -0.881  -0.273  0.00  0.00    -0.003 C 
ATOM     14  C5  LIG d           0.274  -1.678   1.056  0.00  0.00    -0.002 C 
ATOM     15  C12 LIG d           1.089  -2.932  -0.955  0.00  0.00     0.019 C 
ATOM     16  C9  LIG d           2.550  -0.354  -1.724  0.00  0.00     0.008 C 
ATOM     17  C17 LIG d          -2.902   0.899  -1.748  0.00  0.00    -0.048 C 
ATOM     18  C14 LIG d          -3.215   0.937  -0.441  0.00  0.00    -0.107 C 
ATOM     19  C18 LIG d          -3.921   2.154   0.211  0.00  0.00    -0.043 C 
ATOM     20  C20 LIG d          -5.115   1.678   1.084  0.00  0.00     0.219 C 
ATOM     21  C23 LIG d          -2.896   2.905   1.095  0.00  0.00     0.031 C 
ATOM     22  C24 LIG d          -4.457   3.196  -0.807  0.00  0.00     0.031 C 
ATOM     23  C19 LIG d          -4.748   0.540   2.034  0.00  0.00    -0.007 C 
ATOM     24  C16 LIG d          -4.127  -0.630   1.274  0.00  0.00     0.033 C 
BRANCH  13  25
ATOM     25  C13 LIG d           3.547  -1.768   0.163  0.00  0.00    -0.009 C 
ATOM     26  C22 LIG d           3.291  -2.302   1.575  0.00  0.00     0.011 C 
BRANCH  25  27
ATOM     27  C21 LIG d           4.873  -0.983   0.071  0.00  0.00     0.008 C 
BRANCH  27  28
ATOM     28  C25 LIG d           4.976   0.253   0.977  0.00  0.00     0.050 C 
BRANCH  28  29
ATOM     29  C26 LIG d           6.315   0.930   0.883  0.00  0.00    -0.054 C 
ATOM     30  C27 LIG d           6.599   2.161   0.414  0.00  0.00    -0.124 C 
ATOM     31  C28 LIG d           8.019   2.663   0.413  0.00  0.00     0.064 C 
ATOM     32  C29 LIG d           5.600   3.139  -0.136  0.00  0.00     0.064 C 
ENDBRANCH  28  29
ENDBRANCH  27  28
ENDBRANCH  25  27
ENDBRANCH  13  25
BRANCH  20  33
ATOM     33  O1  LIG d          -6.185   1.242   0.239  0.00  0.00    -0.599 OA
ATOM     34  H42 LIG d          -6.930   0.995   0.812  0.00  0.00     0.401 HD
ENDBRANCH  20  33
ENDBRANCH   1   3
TORSDOF 6
