@<TRIPOS>MOLECULE
*****
   82    85     1     0     0
SMALL
bcc


@<TRIPOS>ATOM
      1 O           -1.7680    -2.2720     2.1700 O.3        1 LIG      -0.604800
      2 O1          -6.1850     1.2420     0.2390 O.3        1 LIG      -0.598800
      3 C            0.1740    -0.4580    -1.1380 C.3        1 LIG      -0.039000
      4 C1           0.9730    -1.5160    -0.2950 C.3        1 LIG      -0.036000
      5 C2          -1.2500    -1.0270    -1.4540 C.3        1 LIG      -0.038700
      6 C3          -2.0820    -1.4560    -0.1700 C.3        1 LIG      -0.013000
      7 C4           2.3860    -0.8810    -0.2730 C.3        1 LIG      -0.054700
      8 C5           0.2740    -1.6780     1.0560 C.3        1 LIG      -0.099400
      9 C6           1.1300    -0.2940    -2.3410 C.3        1 LIG      -0.075400
     10 C7          -1.1620    -2.2160     0.8800 C.3        1 LIG       0.146100
     11 C8          -2.8430    -0.2220     0.5000 C.3        1 LIG      -0.007500
     12 C9           2.5500    -0.3540    -1.7240 C.3        1 LIG      -0.076400
     13 C10         -2.0910    -0.1630    -2.4090 C.3        1 LIG      -0.041200
     14 C11          0.0970     0.9580    -0.4870 C.3        1 LIG      -0.090100
     15 C12          1.0890    -2.9320    -0.9550 C.3        1 LIG      -0.090100
     16 C13          3.5470    -1.7680     0.1630 C.3        1 LIG      -0.056700
     17 C14         -3.2150     0.9370    -0.4410 C.2        1 LIG      -0.107400
     18 C15         -3.1310    -2.5050    -0.6590 C.3        1 LIG      -0.094100
     19 C16         -4.1270    -0.6300     1.2740 C.3        1 LIG      -0.072400
     20 C17         -2.9020     0.8990    -1.7480 C.2        1 LIG      -0.173200
     21 C18         -3.9210     2.1540     0.2110 C.3        1 LIG      -0.042800
     22 C19         -4.7480     0.5400     2.0340 C.3        1 LIG      -0.110400
     23 C20         -5.1150     1.6780     1.0840 C.3        1 LIG       0.149100
     24 C21          4.8730    -0.9830     0.0710 C.3        1 LIG      -0.074400
     25 C22          3.2910    -2.3020     1.5750 C.3        1 LIG      -0.090100
     26 C23         -2.8960     2.9050     1.0950 C.3        1 LIG      -0.084600
     27 C24         -4.4570     3.1960    -0.8070 C.3        1 LIG      -0.084600
     28 C25          4.9760     0.2530     0.9770 C.3        1 LIG      -0.047200
     29 C26          6.3150     0.9300     0.8830 C.2        1 LIG      -0.176200
     30 C27          6.5990     2.1610     0.4140 C.2        1 LIG      -0.124400
     31 C28          8.0190     2.6630     0.4130 C.3        1 LIG      -0.057400
     32 C29          5.6000     3.1390    -0.1360 C.3        1 LIG      -0.057400
     33 H           -1.0710    -1.9350    -2.0440 H          1 LIG       0.045700
     34 H1           2.3470    -0.0270     0.4120 H          1 LIG       0.051700
     35 H2           0.2590    -0.7430     1.6270 H          1 LIG       0.048700
     36 H3           0.7840    -2.3840     1.7130 H          1 LIG       0.048700
     37 H4           1.0020    -1.1060    -3.0660 H          1 LIG       0.042700
     38 H5           0.9790     0.6430    -2.8880 H          1 LIG       0.042700
     39 H6          -1.0850    -3.2630     0.5630 H          1 LIG       0.029700
     40 H7          -2.1550     0.1900     1.2470 H          1 LIG       0.067700
     41 H8           3.1810    -1.0040    -2.3410 H          1 LIG       0.042200
     42 H9           3.0100     0.6410    -1.7180 H          1 LIG       0.042200
     43 H10         -2.7790    -0.8010    -2.9790 H          1 LIG       0.048200
     44 H11         -1.4390     0.3040    -3.1570 H          1 LIG       0.048200
     45 H12         -0.4360     1.6610    -1.1350 H          1 LIG       0.039033
     46 H13          1.0780     1.4220    -0.3390 H          1 LIG       0.039033
     47 H14         -0.3830     0.9610     0.4890 H          1 LIG       0.039033
     48 H15          1.6840    -2.9230    -1.8730 H          1 LIG       0.036367
     49 H16          0.1250    -3.3680    -1.2240 H          1 LIG       0.036367
     50 H17          1.5560    -3.6530    -0.2790 H          1 LIG       0.036367
     51 H18          3.6580    -2.6270    -0.5100 H          1 LIG       0.047700
     52 H19         -2.6510    -3.3050    -1.2340 H          1 LIG       0.038367
     53 H20         -3.8930    -2.0530    -1.3020 H          1 LIG       0.038367
     54 H21         -3.6410    -2.9930     0.1790 H          1 LIG       0.038367
     55 H22         -3.9250    -1.4230     1.9980 H          1 LIG       0.052700
     56 H23         -4.8810    -1.0270     0.5830 H          1 LIG       0.052700
     57 H24         -3.1860     1.7100    -2.4110 H          1 LIG       0.125000
     58 H25         -5.6490     0.1800     2.5460 H          1 LIG       0.051700
     59 H26         -4.0580     0.8900     2.8090 H          1 LIG       0.051700
     60 H27         -5.5040     2.5190     1.6700 H          1 LIG       0.069700
     61 H28         -1.2030    -2.8200     2.7410 H          1 LIG       0.398000
     62 H29          5.0660    -0.6870    -0.9670 H          1 LIG       0.041200
     63 H30          5.6900    -1.6710     0.3290 H          1 LIG       0.041200
     64 H31          4.2320    -2.6440     2.0220 H          1 LIG       0.033700
     65 H32          2.8790    -1.5410     2.2450 H          1 LIG       0.033700
     66 H33          2.6450    -3.1820     1.5700 H          1 LIG       0.033700
     67 H34         -3.3540     3.7820     1.5680 H          1 LIG       0.038533
     68 H35         -2.0480     3.2620     0.4960 H          1 LIG       0.038533
     69 H36         -2.4870     2.2860     1.8980 H          1 LIG       0.038533
     70 H37         -5.0120     3.9910    -0.2940 H          1 LIG       0.038533
     71 H38         -5.1360     2.7460    -1.5400 H          1 LIG       0.038533
     72 H39         -3.6410     3.6810    -1.3560 H          1 LIG       0.038533
     73 H40          4.8370    -0.0450     2.0220 H          1 LIG       0.048700
     74 H41          4.1740     0.9580     0.7560 H          1 LIG       0.048700
     75 H42         -6.9300     0.9950     0.8120 H          1 LIG       0.401000
     76 H43          7.1410     0.3250     1.2550 H          1 LIG       0.122000
     77 H44          8.7220     1.9330     0.8270 H          1 LIG       0.040367
     78 H45          8.3390     2.8900    -0.6090 H          1 LIG       0.040367
     79 H46          8.0980     3.5760     1.0130 H          1 LIG       0.040367
     80 H47          5.9000     3.4570    -1.1400 H          1 LIG       0.040367
     81 H48          4.5900     2.7340    -0.2220 H          1 LIG       0.040367
     82 H49          5.5500     4.0250     0.5050 H          1 LIG       0.040367
@<TRIPOS>BOND
     1     1    10 1   
     2     1    61 1   
     3     2    23 1   
     4     2    75 1   
     5     3     4 1   
     6     3     5 1   
     7     3     9 1   
     8     3    14 1   
     9     4     7 1   
    10     4     8 1   
    11     4    15 1   
    12     5     6 1   
    13     5    13 1   
    14     5    33 1   
    15     6    10 1   
    16     6    11 1   
    17     6    18 1   
    18     7    12 1   
    19     7    16 1   
    20     7    34 1   
    21     8    10 1   
    22     8    35 1   
    23     8    36 1   
    24     9    12 1   
    25     9    37 1   
    26     9    38 1   
    27    10    39 1   
    28    11    17 1   
    29    11    19 1   
    30    11    40 1   
    31    12    41 1   
    32    12    42 1   
    33    13    20 1   
    34    13    43 1   
    35    13    44 1   
    36    14    45 1   
    37    14    46 1   
    38    14    47 1   
    39    15    48 1   
    40    15    49 1   
    41    15    50 1   
    42    16    24 1   
    43    16    25 1   
    44    16    51 1   
    45    17    20 2   
    46    17    21 1   
    47    18    52 1   
    48    18    53 1   
    49    18    54 1   
    50    19    22 1   
    51    19    55 1   
    52    19    56 1   
    53    20    57 1   
    54    21    23 1   
    55    21    26 1   
    56    21    27 1   
    57    22    23 1   
    58    22    58 1   
    59    22    59 1   
    60    23    60 1   
    61    24    28 1   
    62    24    62 1   
    63    24    63 1   
    64    25    64 1   
    65    25    65 1   
    66    25    66 1   
    67    26    67 1   
    68    26    68 1   
    69    26    69 1   
    70    27    70 1   
    71    27    71 1   
    72    27    72 1   
    73    28    29 1   
    74    28    73 1   
    75    28    74 1   
    76    29    30 2   
    77    29    76 1   
    78    30    31 1   
    79    30    32 1   
    80    31    77 1   
    81    31    78 1   
    82    31    79 1   
    83    32    80 1   
    84    32    81 1   
    85    32    82 1   
@<TRIPOS>SUBSTRUCTURE
     1 LIG         1 TEMP              0 ****  ****    0 ROOT
