MODEL 1
REMARK VINA RESULT:      -9.7      0.000      0.000
REMARK  5 active torsions:
REMARK  status: ('A' for Active; 'I' for Inactive)
REMARK    1  A    between atoms: O_1  and  C20_22 
REMARK    2  A    between atoms: C4_6  and  C13_15 
REMARK    3  A    between atoms: C13_15  and  C21_23 
REMARK    4  A    between atoms: C21_23  and  C25_27 
REMARK    5  A    between atoms: C25_27  and  C26_28 
ROOT
ATOM      1  O   LIG d          87.281 166.667  74.831  0.00  0.00    -0.597 OA
ATOM      2  H42 LIG d          87.752 166.295  74.068  0.00  0.00     0.399 HD
ENDROOT
BRANCH   1   3
ATOM      3  C20 LIG d          86.139 167.376  74.338  0.00  0.00     0.181 C 
ATOM      4  C18 LIG d          84.884 166.984  75.168  0.00  0.00    -0.040 C 
ATOM      5  C14 LIG d          84.426 165.546  74.818  0.00  0.00    -0.088 C 
ATOM      6  C23 LIG d          85.219 167.192  76.668  0.00  0.00     0.022 C 
ATOM      7  C24 LIG d          83.722 167.955  74.844  0.00  0.00     0.022 C 
ATOM      8  C8  LIG d          84.324 165.205  73.325  0.00  0.00     0.037 C 
ATOM      9  C17 LIG d          84.068 164.653  75.758  0.00  0.00    -0.051 C 
ATOM     10  C3  LIG d          83.892 163.713  72.984  0.00  0.00    -0.023 C 
ATOM     11  C16 LIG d          85.633 165.623  72.607  0.00  0.00     0.033 C 
ATOM     12  C2  LIG d          82.915 163.106  74.072  0.00  0.00     0.011 C 
ATOM     13  C7  LIG d          83.272 163.676  71.538  0.00  0.00     0.004 C 
ATOM     14  C15 LIG d          85.147 162.790  72.948  0.00  0.00     0.016 C 
ATOM     15  C   LIG d          81.414 163.497  73.875  0.00  0.00    -0.038 C 
ATOM     16  C10 LIG d          83.462 163.313  75.495  0.00  0.00     0.054 C 
ATOM     17  C1  LIG d          80.969 163.102  72.419  0.00  0.00    -0.038 C 
ATOM     18  C6  LIG d          80.385 162.692  74.700  0.00  0.00     0.007 C 
ATOM     19  C11 LIG d          81.152 164.990  74.254  0.00  0.00     0.020 C 
ATOM     20  C4  LIG d          79.444 163.358  72.493  0.00  0.00    -0.004 C 
ATOM     21  C5  LIG d          81.761 163.953  71.421  0.00  0.00     0.018 C 
ATOM     22  C12 LIG d          81.195 161.597  72.050  0.00  0.00     0.019 C 
ATOM     23  C9  LIG d          79.067 162.797  73.890  0.00  0.00     0.005 C 
ATOM     24  C19 LIG d          85.989 167.088  72.847  0.00  0.00     0.026 C 
BRANCH  20  25
ATOM     25  C13 LIG d          78.583 162.777  71.377  0.00  0.00    -0.008 C 
ATOM     26  C22 LIG d          77.865 163.909  70.634  0.00  0.00     0.012 C 
BRANCH  25  27
ATOM     27  C21 LIG d          77.540 161.766  71.899  0.00  0.00     0.006 C 
BRANCH  27  28
ATOM     28  C25 LIG d          77.817 160.297  71.546  0.00  0.00     0.050 C 
BRANCH  28  29
ATOM     29  C26 LIG d          78.128 159.458  72.755  0.00  0.00    -0.054 C 
ATOM     30  C27 LIG d          79.076 158.513  72.895  0.00  0.00    -0.126 C 
ATOM     31  C28 LIG d          79.232 157.783  74.203  0.00  0.00     0.062 C 
ATOM     32  C29 LIG d          80.046 158.083  71.831  0.00  0.00     0.062 C 
ENDBRANCH  28  29
ENDBRANCH  27  28
ENDBRANCH  25  27
ENDBRANCH  20  25
ENDBRANCH   1   3
TORSDOF 5
ENDMDL
MODEL 2
REMARK VINA RESULT:      -9.0      2.842      5.463
REMARK  5 active torsions:
REMARK  status: ('A' for Active; 'I' for Inactive)
REMARK    1  A    between atoms: O_1  and  C20_22 
REMARK    2  A    between atoms: C4_6  and  C13_15 
REMARK    3  A    between atoms: C13_15  and  C21_23 
REMARK    4  A    between atoms: C21_23  and  C25_27 
REMARK    5  A    between atoms: C25_27  and  C26_28 
ROOT
ATOM      1  O   LIG d          86.509 173.293  72.990  0.00  0.00    -0.597 OA
ATOM      2  H42 LIG d          86.111 173.236  73.874  0.00  0.00     0.399 HD
ENDROOT
BRANCH   1   3
ATOM      3  C20 LIG d          85.605 172.685  72.062  0.00  0.00     0.181 C 
ATOM      4  C18 LIG d          84.546 171.851  72.836  0.00  0.00    -0.040 C 
ATOM      5  C14 LIG d          85.182 170.560  73.410  0.00  0.00    -0.088 C 
ATOM      6  C23 LIG d          83.905 172.770  73.909  0.00  0.00     0.022 C 
ATOM      7  C24 LIG d          83.403 171.441  71.875  0.00  0.00     0.022 C 
ATOM      8  C8  LIG d          86.049 169.737  72.447  0.00  0.00     0.037 C 
ATOM      9  C17 LIG d          84.943 170.133  74.663  0.00  0.00    -0.051 C 
ATOM     10  C3  LIG d          86.726 168.438  73.064  0.00  0.00    -0.023 C 
ATOM     11  C16 LIG d          87.073 170.667  71.748  0.00  0.00     0.033 C 
ATOM     12  C2  LIG d          85.840 167.778  74.198  0.00  0.00     0.011 C 
ATOM     13  C7  LIG d          87.056 167.430  71.901  0.00  0.00     0.004 C 
ATOM     14  C15 LIG d          88.089 168.810  73.722  0.00  0.00     0.016 C 
ATOM     15  C   LIG d          84.713 166.835  73.664  0.00  0.00    -0.038 C 
ATOM     16  C10 LIG d          85.383 168.823  75.231  0.00  0.00     0.054 C 
ATOM     17  C1  LIG d          85.358 165.745  72.732  0.00  0.00    -0.038 C 
ATOM     18  C6  LIG d          84.031 165.926  74.711  0.00  0.00     0.007 C 
ATOM     19  C11 LIG d          83.546 167.642  73.012  0.00  0.00     0.020 C 
ATOM     20  C4  LIG d          84.150 164.807  72.490  0.00  0.00    -0.004 C 
ATOM     21  C5  LIG d          85.942 166.443  71.499  0.00  0.00     0.018 C 
ATOM     22  C12 LIG d          86.503 164.907  73.396  0.00  0.00     0.019 C 
ATOM     23  C9  LIG d          83.490 164.726  73.893  0.00  0.00     0.005 C 
ATOM     24  C19 LIG d          86.410 171.858  71.062  0.00  0.00     0.026 C 
BRANCH  20  25
ATOM     25  C13 LIG d          84.441 163.431  71.900  0.00  0.00    -0.008 C 
ATOM     26  C22 LIG d          84.499 163.525  70.371  0.00  0.00     0.012 C 
BRANCH  25  27
ATOM     27  C21 LIG d          83.389 162.377  72.308  0.00  0.00     0.006 C 
BRANCH  27  28
ATOM     28  C25 LIG d          82.330 162.061  71.242  0.00  0.00     0.050 C 
BRANCH  28  29
ATOM     29  C26 LIG d          80.932 162.055  71.797  0.00  0.00    -0.054 C 
ATOM     30  C27 LIG d          80.130 163.105  72.055  0.00  0.00    -0.126 C 
ATOM     31  C28 LIG d          78.746 162.885  72.607  0.00  0.00     0.062 C 
ATOM     32  C29 LIG d          80.484 164.549  71.841  0.00  0.00     0.062 C 
ENDBRANCH  28  29
ENDBRANCH  27  28
ENDBRANCH  25  27
ENDBRANCH  20  25
ENDBRANCH   1   3
TORSDOF 5
ENDMDL
MODEL 3
REMARK VINA RESULT:      -8.9      3.220      8.129
REMARK  5 active torsions:
REMARK  status: ('A' for Active; 'I' for Inactive)
REMARK    1  A    between atoms: O_1  and  C20_22 
REMARK    2  A    between atoms: C4_6  and  C13_15 
REMARK    3  A    between atoms: C13_15  and  C21_23 
REMARK    4  A    between atoms: C21_23  and  C25_27 
REMARK    5  A    between atoms: C25_27  and  C26_28 
ROOT
ATOM      1  O   LIG d          76.691 164.618  74.486  0.00  0.00    -0.597 OA
ATOM      2  H42 LIG d          75.756 164.758  74.711  0.00  0.00     0.399 HD
ENDROOT
BRANCH   1   3
ATOM      3  C20 LIG d          77.363 165.877  74.602  0.00  0.00     0.181 C 
ATOM      4  C18 LIG d          78.201 166.140  73.320  0.00  0.00    -0.040 C 
ATOM      5  C14 LIG d          79.449 165.222  73.286  0.00  0.00    -0.088 C 
ATOM      6  C23 LIG d          77.264 165.978  72.094  0.00  0.00     0.022 C 
ATOM      7  C24 LIG d          78.684 167.612  73.306  0.00  0.00     0.022 C 
ATOM      8  C8  LIG d          80.278 165.146  74.575  0.00  0.00     0.037 C 
ATOM      9  C17 LIG d          79.836 164.571  72.174  0.00  0.00    -0.051 C 
ATOM     10  C3  LIG d          81.531 164.168  74.535  0.00  0.00    -0.023 C 
ATOM     11  C16 LIG d          79.342 164.864  75.778  0.00  0.00     0.033 C 
ATOM     12  C2  LIG d          82.176 164.075  73.093  0.00  0.00     0.011 C 
ATOM     13  C7  LIG d          82.571 164.621  75.626  0.00  0.00     0.004 C 
ATOM     14  C15 LIG d          81.091 162.723  74.921  0.00  0.00     0.016 C 
ATOM     15  C   LIG d          83.175 165.231  72.761  0.00  0.00    -0.038 C 
ATOM     16  C10 LIG d          81.109 163.805  72.017  0.00  0.00     0.054 C 
ATOM     17  C1  LIG d          84.278 165.291  73.881  0.00  0.00    -0.038 C 
ATOM     18  C6  LIG d          84.066 165.028  71.515  0.00  0.00     0.007 C 
ATOM     19  C11 LIG d          82.431 166.580  72.506  0.00  0.00     0.020 C 
ATOM     20  C4  LIG d          85.263 166.320  73.274  0.00  0.00    -0.004 C 
ATOM     21  C5  LIG d          83.607 165.679  75.203  0.00  0.00     0.018 C 
ATOM     22  C12 LIG d          85.052 163.949  74.112  0.00  0.00     0.019 C 
ATOM     23  C9  LIG d          85.313 165.910  71.778  0.00  0.00     0.005 C 
ATOM     24  C19 LIG d          78.200 165.871  75.879  0.00  0.00     0.026 C 
BRANCH  20  25
ATOM     25  C13 LIG d          86.649 166.414  73.902  0.00  0.00    -0.008 C 
ATOM     26  C22 LIG d          86.559 167.132  75.253  0.00  0.00     0.012 C 
BRANCH  25  27
ATOM     27  C21 LIG d          87.660 167.151  72.998  0.00  0.00     0.006 C 
BRANCH  27  28
ATOM     28  C25 LIG d          87.738 168.671  73.205  0.00  0.00     0.050 C 
BRANCH  28  29
ATOM     29  C26 LIG d          86.831 169.431  72.277  0.00  0.00    -0.054 C 
ATOM     30  C27 LIG d          85.639 169.995  72.550  0.00  0.00    -0.126 C 
ATOM     31  C28 LIG d          84.883 170.727  71.472  0.00  0.00     0.062 C 
ATOM     32  C29 LIG d          84.944 169.970  73.881  0.00  0.00     0.062 C 
ENDBRANCH  28  29
ENDBRANCH  27  28
ENDBRANCH  25  27
ENDBRANCH  20  25
ENDBRANCH   1   3
TORSDOF 5
ENDMDL
MODEL 4
REMARK VINA RESULT:      -8.7      1.330      1.914
REMARK  5 active torsions:
REMARK  status: ('A' for Active; 'I' for Inactive)
REMARK    1  A    between atoms: O_1  and  C20_22 
REMARK    2  A    between atoms: C4_6  and  C13_15 
REMARK    3  A    between atoms: C13_15  and  C21_23 
REMARK    4  A    between atoms: C21_23  and  C25_27 
REMARK    5  A    between atoms: C25_27  and  C26_28 
ROOT
ATOM      1  O   LIG d          86.857 169.461  74.089  0.00  0.00    -0.597 OA
ATOM      2  H42 LIG d          87.352 169.131  73.321  0.00  0.00     0.399 HD
ENDROOT
BRANCH   1   3
ATOM      3  C20 LIG d          85.489 169.616  73.697  0.00  0.00     0.181 C 
ATOM      4  C18 LIG d          84.575 168.813  74.663  0.00  0.00    -0.040 C 
ATOM      5  C14 LIG d          84.712 167.291  74.404  0.00  0.00    -0.088 C 
ATOM      6  C23 LIG d          84.920 169.240  76.113  0.00  0.00     0.022 C 
ATOM      7  C24 LIG d          83.096 169.212  74.432  0.00  0.00     0.022 C 
ATOM      8  C8  LIG d          84.634 166.836  72.940  0.00  0.00     0.037 C 
ATOM      9  C17 LIG d          84.825 166.397  75.402  0.00  0.00    -0.051 C 
ATOM     10  C3  LIG d          84.816 165.277  72.690  0.00  0.00    -0.023 C 
ATOM     11  C16 LIG d          85.596 167.694  72.079  0.00  0.00     0.033 C 
ATOM     12  C2  LIG d          84.262 164.405  73.890  0.00  0.00     0.011 C 
ATOM     13  C7  LIG d          84.147 164.896  71.317  0.00  0.00     0.004 C 
ATOM     14  C15 LIG d          86.330 164.934  72.551  0.00  0.00     0.016 C 
ATOM     15  C   LIG d          82.721 164.148  73.838  0.00  0.00    -0.038 C 
ATOM     16  C10 LIG d          84.795 164.911  75.242  0.00  0.00     0.054 C 
ATOM     17  C1  LIG d          82.356 163.509  72.448  0.00  0.00    -0.038 C 
ATOM     18  C6  LIG d          82.179 163.057  74.788  0.00  0.00     0.007 C 
ATOM     19  C11 LIG d          81.910 165.433  74.198  0.00  0.00     0.020 C 
ATOM     20  C4  LIG d          80.870 163.138  72.672  0.00  0.00    -0.004 C 
ATOM     21  C5  LIG d          82.649 164.536  71.349  0.00  0.00     0.018 C 
ATOM     22  C12 LIG d          83.141 162.199  72.102  0.00  0.00     0.019 C 
ATOM     23  C9  LIG d          80.870 162.570  74.117  0.00  0.00     0.005 C 
ATOM     24  C19 LIG d          85.346 169.191  72.238  0.00  0.00     0.026 C 
BRANCH  20  25
ATOM     25  C13 LIG d          80.229 162.185  71.668  0.00  0.00    -0.008 C 
ATOM     26  C22 LIG d          78.804 162.651  71.350  0.00  0.00     0.012 C 
BRANCH  25  27
ATOM     27  C21 LIG d          80.189 160.728  72.177  0.00  0.00     0.006 C 
BRANCH  27  28
ATOM     28  C25 LIG d          78.804 160.066  72.162  0.00  0.00     0.050 C 
BRANCH  28  29
ATOM     29  C26 LIG d          78.858 158.600  72.494  0.00  0.00    -0.054 C 
ATOM     30  C27 LIG d          79.144 158.020  73.675  0.00  0.00    -0.126 C 
ATOM     31  C28 LIG d          79.137 156.519  73.804  0.00  0.00     0.062 C 
ATOM     32  C29 LIG d          79.487 158.745  74.945  0.00  0.00     0.062 C 
ENDBRANCH  28  29
ENDBRANCH  27  28
ENDBRANCH  25  27
ENDBRANCH  20  25
ENDBRANCH   1   3
TORSDOF 5
ENDMDL
MODEL 5
REMARK VINA RESULT:      -8.7      2.763      7.617
REMARK  5 active torsions:
REMARK  status: ('A' for Active; 'I' for Inactive)
REMARK    1  A    between atoms: O_1  and  C20_22 
REMARK    2  A    between atoms: C4_6  and  C13_15 
REMARK    3  A    between atoms: C13_15  and  C21_23 
REMARK    4  A    between atoms: C21_23  and  C25_27 
REMARK    5  A    between atoms: C25_27  and  C26_28 
ROOT
ATOM      1  O   LIG d          76.164 162.375  72.064  0.00  0.00    -0.597 OA
ATOM      2  H42 LIG d          76.353 162.767  72.933  0.00  0.00     0.399 HD
ENDROOT
BRANCH   1   3
ATOM      3  C20 LIG d          77.404 162.252  71.360  0.00  0.00     0.181 C 
ATOM      4  C18 LIG d          78.543 161.914  72.362  0.00  0.00    -0.040 C 
ATOM      5  C14 LIG d          78.895 163.153  73.225  0.00  0.00    -0.088 C 
ATOM      6  C23 LIG d          78.102 160.676  73.186  0.00  0.00     0.022 C 
ATOM      7  C24 LIG d          79.812 161.489  71.585  0.00  0.00     0.022 C 
ATOM      8  C8  LIG d          79.091 164.476  72.474  0.00  0.00     0.037 C 
ATOM      9  C17 LIG d          79.088 163.075  74.554  0.00  0.00    -0.051 C 
ATOM     10  C3  LIG d          79.412 165.744  73.378  0.00  0.00    -0.023 C 
ATOM     11  C16 LIG d          77.892 164.714  71.520  0.00  0.00     0.033 C 
ATOM     12  C2  LIG d          80.233 165.365  74.677  0.00  0.00     0.011 C 
ATOM     13  C7  LIG d          80.146 166.826  72.503  0.00  0.00     0.004 C 
ATOM     14  C15 LIG d          78.084 166.400  73.866  0.00  0.00     0.016 C 
ATOM     15  C   LIG d          81.775 165.242  74.448  0.00  0.00    -0.038 C 
ATOM     16  C10 LIG d          79.588 164.183  75.423  0.00  0.00     0.054 C 
ATOM     17  C1  LIG d          82.304 166.576  73.804  0.00  0.00    -0.038 C 
ATOM     18  C6  LIG d          82.652 165.190  75.719  0.00  0.00     0.007 C 
ATOM     19  C11 LIG d          82.140 163.947  73.656  0.00  0.00     0.020 C 
ATOM     20  C4  LIG d          83.834 166.348  73.859  0.00  0.00    -0.004 C 
ATOM     21  C5  LIG d          81.681 166.724  72.412  0.00  0.00     0.018 C 
ATOM     22  C12 LIG d          81.972 167.873  74.617  0.00  0.00     0.019 C 
ATOM     23  C9  LIG d          84.038 165.711  75.260  0.00  0.00     0.005 C 
ATOM     24  C19 LIG d          77.653 163.539  70.577  0.00  0.00     0.026 C 
BRANCH  20  25
ATOM     25  C13 LIG d          84.730 167.562  73.632  0.00  0.00    -0.008 C 
ATOM     26  C22 LIG d          84.933 167.781  72.129  0.00  0.00     0.012 C 
BRANCH  25  27
ATOM     27  C21 LIG d          86.105 167.419  74.319  0.00  0.00     0.006 C 
BRANCH  27  28
ATOM     28  C25 LIG d          87.188 166.727  73.480  0.00  0.00     0.050 C 
BRANCH  28  29
ATOM     29  C26 LIG d          87.434 165.306  73.905  0.00  0.00    -0.054 C 
ATOM     30  C27 LIG d          86.896 164.178  73.403  0.00  0.00    -0.126 C 
ATOM     31  C28 LIG d          87.282 162.837  73.969  0.00  0.00     0.062 C 
ATOM     32  C29 LIG d          85.899 164.109  72.282  0.00  0.00     0.062 C 
ENDBRANCH  28  29
ENDBRANCH  27  28
ENDBRANCH  25  27
ENDBRANCH  20  25
ENDBRANCH   1   3
TORSDOF 5
ENDMDL
MODEL 6
REMARK VINA RESULT:      -8.6      4.092      7.465
REMARK  5 active torsions:
REMARK  status: ('A' for Active; 'I' for Inactive)
REMARK    1  A    between atoms: O_1  and  C20_22 
REMARK    2  A    between atoms: C4_6  and  C13_15 
REMARK    3  A    between atoms: C13_15  and  C21_23 
REMARK    4  A    between atoms: C21_23  and  C25_27 
REMARK    5  A    between atoms: C25_27  and  C26_28 
ROOT
ATOM      1  O   LIG d          85.943 162.578  75.755  0.00  0.00    -0.597 OA
ATOM      2  H42 LIG d          85.537 161.834  76.230  0.00  0.00     0.399 HD
ENDROOT
BRANCH   1   3
ATOM      3  C20 LIG d          85.151 162.837  74.591  0.00  0.00     0.181 C 
ATOM      4  C18 LIG d          85.968 163.694  73.584  0.00  0.00    -0.040 C 
ATOM      5  C14 LIG d          86.105 165.151  74.093  0.00  0.00    -0.088 C 
ATOM      6  C23 LIG d          87.324 162.981  73.340  0.00  0.00     0.022 C 
ATOM      7  C24 LIG d          85.242 163.725  72.217  0.00  0.00     0.022 C 
ATOM      8  C8  LIG d          84.819 165.824  74.593  0.00  0.00     0.037 C 
ATOM      9  C17 LIG d          87.267 165.827  74.043  0.00  0.00    -0.051 C 
ATOM     10  C3  LIG d          84.985 167.304  75.149  0.00  0.00    -0.023 C 
ATOM     11  C16 LIG d          84.101 164.888  75.599  0.00  0.00     0.033 C 
ATOM     12  C2  LIG d          86.139 168.099  74.412  0.00  0.00     0.011 C 
ATOM     13  C7  LIG d          83.599 168.045  75.059  0.00  0.00     0.004 C 
ATOM     14  C15 LIG d          85.365 167.266  76.661  0.00  0.00     0.016 C 
ATOM     15  C   LIG d          85.707 168.746  73.056  0.00  0.00    -0.038 C 
ATOM     16  C10 LIG d          87.439 167.277  74.358  0.00  0.00     0.054 C 
ATOM     17  C1  LIG d          84.449 169.658  73.302  0.00  0.00    -0.038 C 
ATOM     18  C6  LIG d          86.680 169.785  72.455  0.00  0.00     0.007 C 
ATOM     19  C11 LIG d          85.525 167.673  71.937  0.00  0.00     0.020 C 
ATOM     20  C4  LIG d          84.316 170.359  71.929  0.00  0.00    -0.004 C 
ATOM     21  C5  LIG d          83.281 168.767  73.736  0.00  0.00     0.018 C 
ATOM     22  C12 LIG d          84.643 170.760  74.398  0.00  0.00     0.019 C 
ATOM     23  C9  LIG d          85.788 170.686  71.563  0.00  0.00     0.005 C 
ATOM     24  C19 LIG d          83.845 163.498  75.023  0.00  0.00     0.026 C 
BRANCH  20  25
ATOM     25  C13 LIG d          83.409 171.583  71.854  0.00  0.00    -0.008 C 
ATOM     26  C22 LIG d          83.868 172.631  72.874  0.00  0.00     0.012 C 
BRANCH  25  27
ATOM     27  C21 LIG d          81.926 171.237  72.108  0.00  0.00     0.006 C 
BRANCH  27  28
ATOM     28  C25 LIG d          81.328 170.184  71.165  0.00  0.00     0.050 C 
BRANCH  28  29
ATOM     29  C26 LIG d          79.932 169.782  71.554  0.00  0.00    -0.054 C 
ATOM     30  C27 LIG d          79.516 168.621  72.094  0.00  0.00    -0.126 C 
ATOM     31  C28 LIG d          78.060 168.415  72.421  0.00  0.00     0.062 C 
ATOM     32  C29 LIG d          80.392 167.446  72.423  0.00  0.00     0.062 C 
ENDBRANCH  28  29
ENDBRANCH  27  28
ENDBRANCH  25  27
ENDBRANCH  20  25
ENDBRANCH   1   3
TORSDOF 5
ENDMDL
MODEL 7
REMARK VINA RESULT:      -8.5      2.681      8.148
REMARK  5 active torsions:
REMARK  status: ('A' for Active; 'I' for Inactive)
REMARK    1  A    between atoms: O_1  and  C20_22 
REMARK    2  A    between atoms: C4_6  and  C13_15 
REMARK    3  A    between atoms: C13_15  and  C21_23 
REMARK    4  A    between atoms: C21_23  and  C25_27 
REMARK    5  A    between atoms: C25_27  and  C26_28 
ROOT
ATOM      1  O   LIG d          80.317 161.139  74.446  0.00  0.00    -0.597 OA
ATOM      2  H42 LIG d          79.544 160.707  74.846  0.00  0.00     0.399 HD
ENDROOT
BRANCH   1   3
ATOM      3  C20 LIG d          79.967 162.499  74.172  0.00  0.00     0.181 C 
ATOM      4  C18 LIG d          80.670 162.965  72.866  0.00  0.00    -0.040 C 
ATOM      5  C14 LIG d          82.187 163.167  73.107  0.00  0.00    -0.088 C 
ATOM      6  C23 LIG d          80.339 161.938  71.752  0.00  0.00     0.022 C 
ATOM      7  C24 LIG d          80.069 164.316  72.405  0.00  0.00     0.022 C 
ATOM      8  C8  LIG d          82.581 163.970  74.355  0.00  0.00     0.037 C 
ATOM      9  C17 LIG d          83.120 162.728  72.243  0.00  0.00    -0.051 C 
ATOM     10  C3  LIG d          84.142 164.133  74.607  0.00  0.00    -0.023 C 
ATOM     11  C16 LIG d          81.834 163.406  75.591  0.00  0.00     0.033 C 
ATOM     12  C2  LIG d          84.969 164.184  73.258  0.00  0.00     0.011 C 
ATOM     13  C7  LIG d          84.387 165.402  75.505  0.00  0.00     0.004 C 
ATOM     14  C15 LIG d          84.682 162.913  75.415  0.00  0.00     0.016 C 
ATOM     15  C   LIG d          85.015 165.595  72.587  0.00  0.00    -0.038 C 
ATOM     16  C10 LIG d          84.582 163.027  72.320  0.00  0.00     0.054 C 
ATOM     17  C1  LIG d          85.555 166.640  73.631  0.00  0.00    -0.038 C 
ATOM     18  C6  LIG d          86.053 165.780  71.457  0.00  0.00     0.007 C 
ATOM     19  C11 LIG d          83.645 165.970  71.938  0.00  0.00     0.020 C 
ATOM     20  C4  LIG d          85.731 167.891  72.737  0.00  0.00    -0.004 C 
ATOM     21  C5  LIG d          84.544 166.750  74.776  0.00  0.00     0.018 C 
ATOM     22  C12 LIG d          86.948 166.285  74.254  0.00  0.00     0.019 C 
ATOM     23  C9  LIG d          86.339 167.303  71.435  0.00  0.00     0.005 C 
ATOM     24  C19 LIG d          80.323 163.352  75.386  0.00  0.00     0.026 C 
BRANCH  20  25
ATOM     25  C13 LIG d          86.557 169.043  73.300  0.00  0.00    -0.008 C 
ATOM     26  C22 LIG d          85.964 169.500  74.637  0.00  0.00     0.012 C 
BRANCH  25  27
ATOM     27  C21 LIG d          86.631 170.246  72.335  0.00  0.00     0.006 C 
BRANCH  27  28
ATOM     28  C25 LIG d          85.606 171.358  72.594  0.00  0.00     0.050 C 
BRANCH  28  29
ATOM     29  C26 LIG d          84.479 171.352  71.598  0.00  0.00    -0.054 C 
ATOM     30  C27 LIG d          83.240 170.844  71.741  0.00  0.00    -0.126 C 
ATOM     31  C28 LIG d          82.244 170.948  70.616  0.00  0.00     0.062 C 
ATOM     32  C29 LIG d          82.716 170.148  72.964  0.00  0.00     0.062 C 
ENDBRANCH  28  29
ENDBRANCH  27  28
ENDBRANCH  25  27
ENDBRANCH  20  25
ENDBRANCH   1   3
TORSDOF 5
ENDMDL
MODEL 8
REMARK VINA RESULT:      -8.5      3.031      7.608
REMARK  5 active torsions:
REMARK  status: ('A' for Active; 'I' for Inactive)
REMARK    1  A    between atoms: O_1  and  C20_22 
REMARK    2  A    between atoms: C4_6  and  C13_15 
REMARK    3  A    between atoms: C13_15  and  C21_23 
REMARK    4  A    between atoms: C21_23  and  C25_27 
REMARK    5  A    between atoms: C25_27  and  C26_28 
ROOT
ATOM      1  O   LIG d          76.965 164.623  75.232  0.00  0.00    -0.597 OA
ATOM      2  H42 LIG d          76.213 164.633  74.616  0.00  0.00     0.399 HD
ENDROOT
BRANCH   1   3
ATOM      3  C20 LIG d          77.726 165.816  75.013  0.00  0.00     0.181 C 
ATOM      4  C18 LIG d          78.345 165.785  73.588  0.00  0.00    -0.040 C 
ATOM      5  C14 LIG d          79.506 164.761  73.521  0.00  0.00    -0.088 C 
ATOM      6  C23 LIG d          77.202 165.510  72.576  0.00  0.00     0.022 C 
ATOM      7  C24 LIG d          78.911 167.182  73.236  0.00  0.00     0.022 C 
ATOM      8  C8  LIG d          80.539 164.822  74.654  0.00  0.00     0.037 C 
ATOM      9  C17 LIG d          79.653 163.903  72.495  0.00  0.00    -0.051 C 
ATOM     10  C3  LIG d          81.701 163.739  74.590  0.00  0.00    -0.023 C 
ATOM     11  C16 LIG d          79.809 164.832  76.021  0.00  0.00     0.033 C 
ATOM     12  C2  LIG d          82.081 163.350  73.104  0.00  0.00     0.011 C 
ATOM     13  C7  LIG d          82.941 164.268  75.404  0.00  0.00     0.004 C 
ATOM     14  C15 LIG d          81.243 162.425  75.293  0.00  0.00     0.016 C 
ATOM     15  C   LIG d          83.078 164.338  72.417  0.00  0.00    -0.038 C 
ATOM     16  C10 LIG d          80.829 163.006  72.277  0.00  0.00     0.054 C 
ATOM     17  C1  LIG d          84.360 164.479  73.318  0.00  0.00    -0.038 C 
ATOM     18  C6  LIG d          83.726 163.849  71.102  0.00  0.00     0.007 C 
ATOM     19  C11 LIG d          82.390 165.689  72.047  0.00  0.00     0.020 C 
ATOM     20  C4  LIG d          85.289 165.297  72.389  0.00  0.00    -0.004 C 
ATOM     21  C5  LIG d          83.954 165.140  74.639  0.00  0.00     0.018 C 
ATOM     22  C12 LIG d          85.075 163.128  73.658  0.00  0.00     0.019 C 
ATOM     23  C9  LIG d          85.054 164.643  71.001  0.00  0.00     0.005 C 
ATOM     24  C19 LIG d          78.768 165.943  76.121  0.00  0.00     0.026 C 
BRANCH  20  25
ATOM     25  C13 LIG d          86.767 165.365  72.761  0.00  0.00    -0.008 C 
ATOM     26  C22 LIG d          86.911 165.728  74.243  0.00  0.00     0.012 C 
BRANCH  25  27
ATOM     27  C21 LIG d          87.547 166.385  71.905  0.00  0.00     0.006 C 
BRANCH  27  28
ATOM     28  C25 LIG d          87.304 167.859  72.259  0.00  0.00     0.050 C 
BRANCH  28  29
ATOM     29  C26 LIG d          85.874 168.278  72.056  0.00  0.00    -0.054 C 
ATOM     30  C27 LIG d          85.029 168.828  72.948  0.00  0.00    -0.126 C 
ATOM     31  C28 LIG d          83.624 169.186  72.540  0.00  0.00     0.062 C 
ATOM     32  C29 LIG d          85.351 169.139  74.381  0.00  0.00     0.062 C 
ENDBRANCH  28  29
ENDBRANCH  27  28
ENDBRANCH  25  27
ENDBRANCH  20  25
ENDBRANCH   1   3
TORSDOF 5
ENDMDL
MODEL 9
REMARK VINA RESULT:      -8.5      2.634      8.097
REMARK  5 active torsions:
REMARK  status: ('A' for Active; 'I' for Inactive)
REMARK    1  A    between atoms: O_1  and  C20_22 
REMARK    2  A    between atoms: C4_6  and  C13_15 
REMARK    3  A    between atoms: C13_15  and  C21_23 
REMARK    4  A    between atoms: C21_23  and  C25_27 
REMARK    5  A    between atoms: C25_27  and  C26_28 
ROOT
ATOM      1  O   LIG d          76.271 162.343  72.554  0.00  0.00    -0.597 OA
ATOM      2  H42 LIG d          75.912 163.220  72.339  0.00  0.00     0.399 HD
ENDROOT
BRANCH   1   3
ATOM      3  C20 LIG d          77.390 162.105  71.693  0.00  0.00     0.181 C 
ATOM      4  C18 LIG d          78.593 161.591  72.531  0.00  0.00    -0.040 C 
ATOM      5  C14 LIG d          79.199 162.740  73.376  0.00  0.00    -0.088 C 
ATOM      6  C23 LIG d          78.108 160.379  73.370  0.00  0.00     0.022 C 
ATOM      7  C24 LIG d          79.694 161.052  71.586  0.00  0.00     0.022 C 
ATOM      8  C8  LIG d          79.463 164.062  72.644  0.00  0.00     0.037 C 
ATOM      9  C17 LIG d          79.545 162.582  74.667  0.00  0.00    -0.051 C 
ATOM     10  C3  LIG d          80.047 165.242  73.535  0.00  0.00    -0.023 C 
ATOM     11  C16 LIG d          78.194 164.482  71.859  0.00  0.00     0.033 C 
ATOM     12  C2  LIG d          80.970 164.711  74.706  0.00  0.00     0.011 C 
ATOM     13  C7  LIG d          80.796 166.267  72.603  0.00  0.00     0.004 C 
ATOM     14  C15 LIG d          78.882 166.029  74.207  0.00  0.00     0.016 C 
ATOM     15  C   LIG d          82.445 164.416  74.278  0.00  0.00    -0.038 C 
ATOM     16  C10 LIG d          80.282 163.583  75.495  0.00  0.00     0.054 C 
ATOM     17  C1  LIG d          83.050 165.705  73.609  0.00  0.00    -0.038 C 
ATOM     18  C6  LIG d          83.459 164.205  75.424  0.00  0.00     0.007 C 
ATOM     19  C11 LIG d          82.546 163.123  73.409  0.00  0.00     0.020 C 
ATOM     20  C4  LIG d          84.535 165.295  73.461  0.00  0.00    -0.004 C 
ATOM     21  C5  LIG d          82.282 165.986  72.313  0.00  0.00     0.018 C 
ATOM     22  C12 LIG d          82.985 166.996  74.494  0.00  0.00     0.019 C 
ATOM     23  C9  LIG d          84.831 164.577  74.805  0.00  0.00     0.005 C 
ATOM     24  C19 LIG d          77.696 163.386  70.921  0.00  0.00     0.026 C 
BRANCH  20  25
ATOM     25  C13 LIG d          85.539 166.401  73.155  0.00  0.00    -0.008 C 
ATOM     26  C22 LIG d          85.892 166.382  71.664  0.00  0.00     0.012 C 
BRANCH  25  27
ATOM     27  C21 LIG d          86.832 166.275  73.990  0.00  0.00     0.006 C 
BRANCH  27  28
ATOM     28  C25 LIG d          87.418 167.601  74.496  0.00  0.00     0.050 C 
BRANCH  28  29
ATOM     29  C26 LIG d          86.359 168.572  74.939  0.00  0.00    -0.054 C 
ATOM     30  C27 LIG d          85.683 168.598  76.104  0.00  0.00    -0.126 C 
ATOM     31  C28 LIG d          84.657 169.670  76.361  0.00  0.00     0.062 C 
ATOM     32  C29 LIG d          85.851 167.623  77.234  0.00  0.00     0.062 C 
ENDBRANCH  28  29
ENDBRANCH  27  28
ENDBRANCH  25  27
ENDBRANCH  20  25
ENDBRANCH   1   3
TORSDOF 5
ENDMDL
