REMARK  5 active torsions:
REMARK  status: ('A' for Active; 'I' for Inactive)
REMARK    1  A    between atoms: O_1  and  C20_22 
REMARK    2  A    between atoms: C4_6  and  C13_15 
REMARK    3  A    between atoms: C13_15  and  C21_23 
REMARK    4  A    between atoms: C21_23  and  C25_27 
REMARK    5  A    between atoms: C25_27  and  C26_28 
ROOT
ATOM      1  O   LIG d           6.317   1.128  -0.491  0.00  0.00    -0.597 OA
ATOM      2  H42 LIG d           6.925   1.611   0.093  0.00  0.00     0.399 HD
ENDROOT
BRANCH   1   3
ATOM      3  C20 LIG d           5.185   1.969  -0.737  0.00  0.00     0.181 C 
ATOM      4  C18 LIG d           4.232   1.933   0.490  0.00  0.00    -0.040 C 
ATOM      5  C14 LIG d           3.491   0.574   0.565  0.00  0.00    -0.088 C 
ATOM      6  C23 LIG d           5.067   2.267   1.754  0.00  0.00     0.022 C 
ATOM      7  C24 LIG d           3.173   3.055   0.360  0.00  0.00     0.022 C 
ATOM      8  C8  LIG d           2.858   0.067  -0.738  0.00  0.00     0.037 C 
ATOM      9  C17 LIG d           3.343  -0.105   1.717  0.00  0.00    -0.051 C 
ATOM     10  C3  LIG d           2.137  -1.347  -0.652  0.00  0.00    -0.023 C 
ATOM     11  C16 LIG d           3.902   0.134  -1.882  0.00  0.00     0.033 C 
ATOM     12  C2  LIG d           1.498  -1.612   0.772  0.00  0.00     0.011 C 
ATOM     13  C7  LIG d           1.077  -1.454  -1.811  0.00  0.00     0.004 C 
ATOM     14  C15 LIG d           3.171  -2.488  -0.896  0.00  0.00     0.016 C 
ATOM     15  C   LIG d           0.085  -0.973   0.970  0.00  0.00    -0.038 C 
ATOM     16  C10 LIG d           2.506  -1.329   1.900  0.00  0.00     0.054 C 
ATOM     17  C1  LIG d          -0.864  -1.463  -0.185  0.00  0.00    -0.038 C 
ATOM     18  C6  LIG d          -0.716  -1.455   2.200  0.00  0.00     0.007 C 
ATOM     19  C11 LIG d           0.170   0.578   1.129  0.00  0.00     0.020 C 
ATOM     20  C4  LIG d          -2.229  -0.916   0.298  0.00  0.00    -0.004 C 
ATOM     21  C5  LIG d          -0.335  -0.914  -1.514  0.00  0.00     0.018 C 
ATOM     22  C12 LIG d          -0.981  -3.019  -0.322  0.00  0.00     0.019 C 
ATOM     23  C9  LIG d          -2.199  -1.209   1.822  0.00  0.00     0.005 C 
ATOM     24  C19 LIG d           4.515   1.523  -2.034  0.00  0.00     0.026 C 
BRANCH  20  25
ATOM     25  C13 LIG d          -3.481  -1.464  -0.379  0.00  0.00    -0.008 C 
ATOM     26  C22 LIG d          -3.409  -1.206  -1.888  0.00  0.00     0.012 C 
BRANCH  25  27
ATOM     27  C21 LIG d          -4.778  -0.845   0.185  0.00  0.00     0.006 C 
BRANCH  27  28
ATOM     28  C25 LIG d          -4.914   0.673   0.000  0.00  0.00     0.050 C 
BRANCH  28  29
ATOM     29  C26 LIG d          -6.222   1.206   0.516  0.00  0.00    -0.054 C 
ATOM     30  C27 LIG d          -7.145   1.935  -0.140  0.00  0.00    -0.126 C 
ATOM     31  C28 LIG d          -8.406   2.369   0.560  0.00  0.00     0.062 C 
ATOM     32  C29 LIG d          -7.048   2.387  -1.569  0.00  0.00     0.062 C 
ENDBRANCH  28  29
ENDBRANCH  27  28
ENDBRANCH  25  27
ENDBRANCH  20  25
ENDBRANCH   1   3
TORSDOF 5
