MODEL 1
REMARK VINA RESULT:     -10.6      0.000      0.000
REMARK  5 active torsions:
REMARK  status: ('A' for Active; 'I' for Inactive)
REMARK    1  A    between atoms: O_1  and  C20_22 
REMARK    2  A    between atoms: C4_6  and  C13_15 
REMARK    3  A    between atoms: C13_15  and  C21_23 
REMARK    4  A    between atoms: C21_23  and  C25_27 
REMARK    5  A    between atoms: C25_27  and  C26_28 
ROOT
ATOM      1  O   LIG d          83.194 164.160  75.327  0.00  0.00    -0.597 OA
ATOM      2  H42 LIG d          82.352 163.682  75.247  0.00  0.00     0.399 HD
ENDROOT
BRANCH   1   3
ATOM      3  C20 LIG d          83.836 164.135  74.048  0.00  0.00     0.181 C 
ATOM      4  C18 LIG d          85.246 164.779  74.159  0.00  0.00    -0.040 C 
ATOM      5  C14 LIG d          85.131 166.316  74.323  0.00  0.00    -0.088 C 
ATOM      6  C23 LIG d          86.004 164.075  75.315  0.00  0.00     0.022 C 
ATOM      7  C24 LIG d          86.054 164.489  72.870  0.00  0.00     0.022 C 
ATOM      8  C8  LIG d          84.184 167.039  73.356  0.00  0.00     0.037 C 
ATOM      9  C17 LIG d          85.867 167.003  75.216  0.00  0.00    -0.051 C 
ATOM     10  C3  LIG d          84.048 168.608  73.566  0.00  0.00    -0.023 C 
ATOM     11  C16 LIG d          82.811 166.319  73.341  0.00  0.00     0.033 C 
ATOM     12  C2  LIG d          85.385 169.262  74.106  0.00  0.00     0.011 C 
ATOM     13  C7  LIG d          83.564 169.266  72.220  0.00  0.00     0.004 C 
ATOM     14  C15 LIG d          82.944 168.911  74.624  0.00  0.00     0.016 C 
ATOM     15  C   LIG d          86.436 169.585  72.995  0.00  0.00    -0.038 C 
ATOM     16  C10 LIG d          85.934 168.492  75.320  0.00  0.00     0.054 C 
ATOM     17  C1  LIG d          85.759 170.487  71.898  0.00  0.00    -0.038 C 
ATOM     18  C6  LIG d          87.609 170.501  73.410  0.00  0.00     0.007 C 
ATOM     19  C11 LIG d          87.113 168.290  72.446  0.00  0.00     0.020 C 
ATOM     20  C4  LIG d          86.982 170.869  71.029  0.00  0.00    -0.004 C 
ATOM     21  C5  LIG d          84.657 169.673  71.212  0.00  0.00     0.018 C 
ATOM     22  C12 LIG d          85.112 171.807  72.441  0.00  0.00     0.019 C 
ATOM     23  C9  LIG d          88.081 171.157  72.087  0.00  0.00     0.005 C 
ATOM     24  C19 LIG d          82.934 164.830  73.032  0.00  0.00     0.026 C 
BRANCH  20  25
ATOM     25  C13 LIG d          86.806 172.017  70.041  0.00  0.00    -0.008 C 
ATOM     26  C22 LIG d          86.658 171.460  68.621  0.00  0.00     0.012 C 
BRANCH  25  27
ATOM     27  C21 LIG d          87.982 173.016  70.079  0.00  0.00     0.006 C 
BRANCH  27  28
ATOM     28  C25 LIG d          88.960 172.922  68.899  0.00  0.00     0.050 C 
BRANCH  28  29
ATOM     29  C26 LIG d          89.587 174.246  68.557  0.00  0.00    -0.054 C 
ATOM     30  C27 LIG d          90.718 174.787  69.048  0.00  0.00    -0.126 C 
ATOM     31  C28 LIG d          91.186 176.135  68.565  0.00  0.00     0.062 C 
ATOM     32  C29 LIG d          91.611 174.160  70.080  0.00  0.00     0.062 C 
ENDBRANCH  28  29
ENDBRANCH  27  28
ENDBRANCH  25  27
ENDBRANCH  20  25
ENDBRANCH   1   3
TORSDOF 5
ENDMDL
MODEL 2
REMARK VINA RESULT:     -10.5      1.451      1.983
REMARK  5 active torsions:
REMARK  status: ('A' for Active; 'I' for Inactive)
REMARK    1  A    between atoms: O_1  and  C20_22 
REMARK    2  A    between atoms: C4_6  and  C13_15 
REMARK    3  A    between atoms: C13_15  and  C21_23 
REMARK    4  A    between atoms: C21_23  and  C25_27 
REMARK    5  A    between atoms: C25_27  and  C26_28 
ROOT
ATOM      1  O   LIG d          83.781 162.740  75.070  0.00  0.00    -0.597 OA
ATOM      2  H42 LIG d          83.664 161.776  75.061  0.00  0.00     0.399 HD
ENDROOT
BRANCH   1   3
ATOM      3  C20 LIG d          84.296 163.132  73.794  0.00  0.00     0.181 C 
ATOM      4  C18 LIG d          85.512 164.079  73.990  0.00  0.00    -0.040 C 
ATOM      5  C14 LIG d          85.044 165.472  74.481  0.00  0.00    -0.088 C 
ATOM      6  C23 LIG d          86.515 163.378  74.943  0.00  0.00     0.022 C 
ATOM      7  C24 LIG d          86.251 164.265  72.642  0.00  0.00     0.022 C 
ATOM      8  C8  LIG d          83.869 166.106  73.724  0.00  0.00     0.037 C 
ATOM      9  C17 LIG d          85.666 166.135  75.474  0.00  0.00    -0.051 C 
ATOM     10  C3  LIG d          83.376 167.516  74.267  0.00  0.00    -0.023 C 
ATOM     11  C16 LIG d          82.715 165.078  73.604  0.00  0.00     0.033 C 
ATOM     12  C2  LIG d          84.557 168.369  74.887  0.00  0.00     0.011 C 
ATOM     13  C7  LIG d          82.632 168.281  73.109  0.00  0.00     0.004 C 
ATOM     14  C15 LIG d          82.328 167.313  75.403  0.00  0.00     0.016 C 
ATOM     15  C   LIG d          85.398 169.162  73.834  0.00  0.00    -0.038 C 
ATOM     16  C10 LIG d          85.381 167.541  75.889  0.00  0.00     0.054 C 
ATOM     17  C1  LIG d          84.430 170.060  72.978  0.00  0.00    -0.038 C 
ATOM     18  C6  LIG d          86.346 170.246  74.394  0.00  0.00     0.007 C 
ATOM     19  C11 LIG d          86.317 168.216  72.999  0.00  0.00     0.020 C 
ATOM     20  C4  LIG d          85.443 170.904  72.169  0.00  0.00    -0.004 C 
ATOM     21  C5  LIG d          83.502 169.143  72.174  0.00  0.00     0.018 C 
ATOM     22  C12 LIG d          83.533 171.037  73.812  0.00  0.00     0.019 C 
ATOM     23  C9  LIG d          86.528 171.248  73.225  0.00  0.00     0.005 C 
ATOM     24  C19 LIG d          83.167 163.761  72.981  0.00  0.00     0.026 C 
BRANCH  20  25
ATOM     25  C13 LIG d          84.909 172.141  71.454  0.00  0.00    -0.008 C 
ATOM     26  C22 LIG d          84.772 171.854  69.955  0.00  0.00     0.012 C 
BRANCH  25  27
ATOM     27  C21 LIG d          85.811 173.378  71.658  0.00  0.00     0.006 C 
BRANCH  27  28
ATOM     28  C25 LIG d          86.482 173.916  70.387  0.00  0.00     0.050 C 
BRANCH  28  29
ATOM     29  C26 LIG d          87.960 173.644  70.350  0.00  0.00    -0.054 C 
ATOM     30  C27 LIG d          88.650 172.884  69.477  0.00  0.00    -0.126 C 
ATOM     31  C28 LIG d          90.143 172.744  69.609  0.00  0.00     0.062 C 
ATOM     32  C29 LIG d          88.059 172.121  68.326  0.00  0.00     0.062 C 
ENDBRANCH  28  29
ENDBRANCH  27  28
ENDBRANCH  25  27
ENDBRANCH  20  25
ENDBRANCH   1   3
TORSDOF 5
ENDMDL
MODEL 3
REMARK VINA RESULT:     -10.4      1.415      1.993
REMARK  5 active torsions:
REMARK  status: ('A' for Active; 'I' for Inactive)
REMARK    1  A    between atoms: O_1  and  C20_22 
REMARK    2  A    between atoms: C4_6  and  C13_15 
REMARK    3  A    between atoms: C13_15  and  C21_23 
REMARK    4  A    between atoms: C21_23  and  C25_27 
REMARK    5  A    between atoms: C25_27  and  C26_28 
ROOT
ATOM      1  O   LIG d          83.245 164.171  75.297  0.00  0.00    -0.597 OA
ATOM      2  H42 LIG d          83.852 163.756  75.932  0.00  0.00     0.399 HD
ENDROOT
BRANCH   1   3
ATOM      3  C20 LIG d          83.886 164.173  74.016  0.00  0.00     0.181 C 
ATOM      4  C18 LIG d          85.310 164.783  74.146  0.00  0.00    -0.040 C 
ATOM      5  C14 LIG d          85.229 166.315  74.360  0.00  0.00    -0.088 C 
ATOM      6  C23 LIG d          86.052 164.025  75.279  0.00  0.00     0.022 C 
ATOM      7  C24 LIG d          86.111 164.517  72.848  0.00  0.00     0.022 C 
ATOM      8  C8  LIG d          84.297 167.090  73.418  0.00  0.00     0.037 C 
ATOM      9  C17 LIG d          85.980 166.957  75.274  0.00  0.00    -0.051 C 
ATOM     10  C3  LIG d          84.197 168.655  73.678  0.00  0.00    -0.023 C 
ATOM     11  C16 LIG d          82.909 166.402  73.382  0.00  0.00     0.033 C 
ATOM     12  C2  LIG d          85.548 169.261  74.238  0.00  0.00     0.011 C 
ATOM     13  C7  LIG d          83.727 169.365  72.354  0.00  0.00     0.004 C 
ATOM     14  C15 LIG d          83.100 168.948  74.747  0.00  0.00     0.016 C 
ATOM     15  C   LIG d          86.605 169.596  73.136  0.00  0.00    -0.038 C 
ATOM     16  C10 LIG d          86.081 168.440  75.425  0.00  0.00     0.054 C 
ATOM     17  C1  LIG d          85.948 170.548  72.069  0.00  0.00    -0.038 C 
ATOM     18  C6  LIG d          87.798 170.472  73.579  0.00  0.00     0.007 C 
ATOM     19  C11 LIG d          87.253 168.304  72.545  0.00  0.00     0.020 C 
ATOM     20  C4  LIG d          87.178 170.930  71.212  0.00  0.00    -0.004 C 
ATOM     21  C5  LIG d          84.827 169.780  71.359  0.00  0.00     0.018 C 
ATOM     22  C12 LIG d          85.331 171.863  72.655  0.00  0.00     0.019 C 
ATOM     23  C9  LIG d          88.284 171.160  72.277  0.00  0.00     0.005 C 
ATOM     24  C19 LIG d          82.999 164.921  73.025  0.00  0.00     0.026 C 
BRANCH  20  25
ATOM     25  C13 LIG d          87.027 172.113  70.261  0.00  0.00    -0.008 C 
ATOM     26  C22 LIG d          87.093 171.623  68.810  0.00  0.00     0.012 C 
BRANCH  25  27
ATOM     27  C21 LIG d          88.106 173.195  70.486  0.00  0.00     0.006 C 
BRANCH  27  28
ATOM     28  C25 LIG d          87.906 174.494  69.693  0.00  0.00     0.050 C 
BRANCH  28  29
ATOM     29  C26 LIG d          87.536 175.658  70.569  0.00  0.00    -0.054 C 
ATOM     30  C27 LIG d          86.322 175.991  71.049  0.00  0.00    -0.126 C 
ATOM     31  C28 LIG d          86.160 177.204  71.926  0.00  0.00     0.062 C 
ATOM     32  C29 LIG d          85.045 175.244  70.790  0.00  0.00     0.062 C 
ENDBRANCH  28  29
ENDBRANCH  27  28
ENDBRANCH  25  27
ENDBRANCH  20  25
ENDBRANCH   1   3
TORSDOF 5
ENDMDL
MODEL 4
REMARK VINA RESULT:     -10.2      2.191      2.559
REMARK  5 active torsions:
REMARK  status: ('A' for Active; 'I' for Inactive)
REMARK    1  A    between atoms: O_1  and  C20_22 
REMARK    2  A    between atoms: C4_6  and  C13_15 
REMARK    3  A    between atoms: C13_15  and  C21_23 
REMARK    4  A    between atoms: C21_23  and  C25_27 
REMARK    5  A    between atoms: C25_27  and  C26_28 
ROOT
ATOM      1  O   LIG d          83.750 162.797  75.097  0.00  0.00    -0.597 OA
ATOM      2  H42 LIG d          84.503 162.692  75.702  0.00  0.00     0.399 HD
ENDROOT
BRANCH   1   3
ATOM      3  C20 LIG d          84.266 163.173  73.815  0.00  0.00     0.181 C 
ATOM      4  C18 LIG d          85.485 164.119  74.001  0.00  0.00    -0.040 C 
ATOM      5  C14 LIG d          85.020 165.519  74.476  0.00  0.00    -0.088 C 
ATOM      6  C23 LIG d          86.486 163.427  74.963  0.00  0.00     0.022 C 
ATOM      7  C24 LIG d          86.225 164.286  72.652  0.00  0.00     0.022 C 
ATOM      8  C8  LIG d          83.848 166.147  73.710  0.00  0.00     0.037 C 
ATOM      9  C17 LIG d          85.644 166.192  75.460  0.00  0.00    -0.051 C 
ATOM     10  C3  LIG d          83.358 167.565  74.235  0.00  0.00    -0.023 C 
ATOM     11  C16 LIG d          82.691 165.121  73.601  0.00  0.00     0.033 C 
ATOM     12  C2  LIG d          84.541 168.422  74.846  0.00  0.00     0.011 C 
ATOM     13  C7  LIG d          82.617 168.317  73.068  0.00  0.00     0.004 C 
ATOM     14  C15 LIG d          82.309 167.378  75.373  0.00  0.00     0.016 C 
ATOM     15  C   LIG d          85.384 169.200  73.784  0.00  0.00    -0.038 C 
ATOM     16  C10 LIG d          85.361 167.604  75.859  0.00  0.00     0.054 C 
ATOM     17  C1  LIG d          84.419 170.089  72.917  0.00  0.00    -0.038 C 
ATOM     18  C6  LIG d          86.335 170.288  74.331  0.00  0.00     0.007 C 
ATOM     19  C11 LIG d          86.302 168.241  72.961  0.00  0.00     0.020 C 
ATOM     20  C4  LIG d          85.436 170.921  72.098  0.00  0.00    -0.004 C 
ATOM     21  C5  LIG d          83.490 169.166  72.123  0.00  0.00     0.018 C 
ATOM     22  C12 LIG d          83.525 171.079  73.737  0.00  0.00     0.019 C 
ATOM     23  C9  LIG d          86.520 171.275  73.150  0.00  0.00     0.005 C 
ATOM     24  C19 LIG d          83.140 163.795  72.995  0.00  0.00     0.026 C 
BRANCH  20  25
ATOM     25  C13 LIG d          84.906 172.151  71.368  0.00  0.00    -0.008 C 
ATOM     26  C22 LIG d          84.356 171.742  69.996  0.00  0.00     0.012 C 
BRANCH  25  27
ATOM     27  C21 LIG d          85.984 173.240  71.183  0.00  0.00     0.006 C 
BRANCH  27  28
ATOM     28  C25 LIG d          85.471 174.686  71.239  0.00  0.00     0.050 C 
BRANCH  28  29
ATOM     29  C26 LIG d          86.559 175.698  71.011  0.00  0.00    -0.054 C 
ATOM     30  C27 LIG d          86.512 177.032  71.190  0.00  0.00    -0.126 C 
ATOM     31  C28 LIG d          87.726 177.878  70.910  0.00  0.00     0.062 C 
ATOM     32  C29 LIG d          85.317 177.809  71.664  0.00  0.00     0.062 C 
ENDBRANCH  28  29
ENDBRANCH  27  28
ENDBRANCH  25  27
ENDBRANCH  20  25
ENDBRANCH   1   3
TORSDOF 5
ENDMDL
MODEL 5
REMARK VINA RESULT:      -9.9      2.081      2.969
REMARK  5 active torsions:
REMARK  status: ('A' for Active; 'I' for Inactive)
REMARK    1  A    between atoms: O_1  and  C20_22 
REMARK    2  A    between atoms: C4_6  and  C13_15 
REMARK    3  A    between atoms: C13_15  and  C21_23 
REMARK    4  A    between atoms: C21_23  and  C25_27 
REMARK    5  A    between atoms: C25_27  and  C26_28 
ROOT
ATOM      1  O   LIG d          86.011 163.447  75.431  0.00  0.00    -0.597 OA
ATOM      2  H42 LIG d          85.525 162.841  74.847  0.00  0.00     0.399 HD
ENDROOT
BRANCH   1   3
ATOM      3  C20 LIG d          86.885 164.234  74.614  0.00  0.00     0.181 C 
ATOM      4  C18 LIG d          87.214 165.569  75.339  0.00  0.00    -0.040 C 
ATOM      5  C14 LIG d          85.985 166.512  75.329  0.00  0.00    -0.088 C 
ATOM      6  C23 LIG d          87.735 165.226  76.760  0.00  0.00     0.022 C 
ATOM      7  C24 LIG d          88.379 166.283  74.611  0.00  0.00     0.022 C 
ATOM      8  C8  LIG d          85.269 166.688  73.983  0.00  0.00     0.037 C 
ATOM      9  C17 LIG d          85.595 167.201  76.417  0.00  0.00    -0.051 C 
ATOM     10  C3  LIG d          83.986 167.627  74.000  0.00  0.00    -0.023 C 
ATOM     11  C16 LIG d          84.979 165.296  73.365  0.00  0.00     0.033 C 
ATOM     12  C2  LIG d          84.106 168.791  75.066  0.00  0.00     0.011 C 
ATOM     13  C7  LIG d          83.732 168.174  72.546  0.00  0.00     0.004 C 
ATOM     14  C15 LIG d          82.723 166.798  74.384  0.00  0.00     0.016 C 
ATOM     15  C   LIG d          84.909 170.037  74.569  0.00  0.00    -0.038 C 
ATOM     16  C10 LIG d          84.530 168.249  76.443  0.00  0.00     0.054 C 
ATOM     17  C1  LIG d          84.273 170.553  73.226  0.00  0.00    -0.038 C 
ATOM     18  C6  LIG d          84.791 171.314  75.431  0.00  0.00     0.007 C 
ATOM     19  C11 LIG d          86.441 169.744  74.493  0.00  0.00     0.020 C 
ATOM     20  C4  LIG d          85.045 171.878  73.019  0.00  0.00    -0.004 C 
ATOM     21  C5  LIG d          84.461 169.474  72.154  0.00  0.00     0.018 C 
ATOM     22  C12 LIG d          82.744 170.884  73.309  0.00  0.00     0.019 C 
ATOM     23  C9  LIG d          85.093 172.476  74.451  0.00  0.00     0.005 C 
ATOM     24  C19 LIG d          86.233 164.435  73.249  0.00  0.00     0.026 C 
BRANCH  20  25
ATOM     25  C13 LIG d          84.487 172.859  71.993  0.00  0.00    -0.008 C 
ATOM     26  C22 LIG d          85.055 172.537  70.607  0.00  0.00     0.012 C 
BRANCH  25  27
ATOM     27  C21 LIG d          84.803 174.329  72.347  0.00  0.00     0.006 C 
BRANCH  27  28
ATOM     28  C25 LIG d          84.896 175.286  71.150  0.00  0.00     0.050 C 
BRANCH  28  29
ATOM     29  C26 LIG d          86.000 176.296  71.299  0.00  0.00    -0.054 C 
ATOM     30  C27 LIG d          87.306 176.158  71.001  0.00  0.00    -0.126 C 
ATOM     31  C28 LIG d          88.258 177.304  71.218  0.00  0.00     0.062 C 
ATOM     32  C29 LIG d          87.950 174.920  70.446  0.00  0.00     0.062 C 
ENDBRANCH  28  29
ENDBRANCH  27  28
ENDBRANCH  25  27
ENDBRANCH  20  25
ENDBRANCH   1   3
TORSDOF 5
ENDMDL
MODEL 6
REMARK VINA RESULT:      -9.9      2.469      3.038
REMARK  5 active torsions:
REMARK  status: ('A' for Active; 'I' for Inactive)
REMARK    1  A    between atoms: O_1  and  C20_22 
REMARK    2  A    between atoms: C4_6  and  C13_15 
REMARK    3  A    between atoms: C13_15  and  C21_23 
REMARK    4  A    between atoms: C21_23  and  C25_27 
REMARK    5  A    between atoms: C25_27  and  C26_28 
ROOT
ATOM      1  O   LIG d          86.320 165.449  78.374  0.00  0.00    -0.597 OA
ATOM      2  H42 LIG d          87.272 165.633  78.314  0.00  0.00     0.399 HD
ENDROOT
BRANCH   1   3
ATOM      3  C20 LIG d          85.853 165.124  77.060  0.00  0.00     0.181 C 
ATOM      4  C18 LIG d          86.916 165.548  76.009  0.00  0.00    -0.040 C 
ATOM      5  C14 LIG d          86.951 167.090  75.861  0.00  0.00    -0.088 C 
ATOM      6  C23 LIG d          88.275 164.923  76.424  0.00  0.00     0.022 C 
ATOM      7  C24 LIG d          86.560 164.937  74.632  0.00  0.00     0.022 C 
ATOM      8  C8  LIG d          85.596 167.793  75.703  0.00  0.00     0.037 C 
ATOM      9  C17 LIG d          88.102 167.784  75.803  0.00  0.00    -0.051 C 
ATOM     10  C3  LIG d          85.648 169.378  75.593  0.00  0.00    -0.023 C 
ATOM     11  C16 LIG d          84.627 167.305  76.811  0.00  0.00     0.033 C 
ATOM     12  C2  LIG d          86.967 169.890  74.883  0.00  0.00     0.011 C 
ATOM     13  C7  LIG d          84.345 169.885  74.868  0.00  0.00     0.004 C 
ATOM     14  C15 LIG d          85.633 170.012  77.017  0.00  0.00     0.016 C 
ATOM     15  C   LIG d          86.906 169.866  73.321  0.00  0.00    -0.038 C 
ATOM     16  C10 LIG d          88.221 169.242  75.497  0.00  0.00     0.054 C 
ATOM     17  C1  LIG d          85.646 170.680  72.847  0.00  0.00    -0.038 C 
ATOM     18  C6  LIG d          88.021 170.639  72.582  0.00  0.00     0.007 C 
ATOM     19  C11 LIG d          86.989 168.411  72.762  0.00  0.00     0.020 C 
ATOM     20  C4  LIG d          85.879 170.725  71.317  0.00  0.00    -0.004 C 
ATOM     21  C5  LIG d          84.387 169.953  73.329  0.00  0.00     0.018 C 
ATOM     22  C12 LIG d          85.580 172.154  73.375  0.00  0.00     0.019 C 
ATOM     23  C9  LIG d          87.403 170.998  71.207  0.00  0.00     0.005 C 
ATOM     24  C19 LIG d          84.495 165.786  76.844  0.00  0.00     0.026 C 
BRANCH  20  25
ATOM     25  C13 LIG d          85.047 171.718  70.512  0.00  0.00    -0.008 C 
ATOM     26  C22 LIG d          84.429 171.013  69.299  0.00  0.00     0.012 C 
BRANCH  25  27
ATOM     27  C21 LIG d          85.872 172.931  70.033  0.00  0.00     0.006 C 
BRANCH  27  28
ATOM     28  C25 LIG d          85.593 174.247  70.773  0.00  0.00     0.050 C 
BRANCH  28  29
ATOM     29  C26 LIG d          86.747 175.209  70.703  0.00  0.00    -0.054 C 
ATOM     30  C27 LIG d          86.847 176.436  71.249  0.00  0.00    -0.126 C 
ATOM     31  C28 LIG d          88.104 177.246  71.067  0.00  0.00     0.062 C 
ATOM     32  C29 LIG d          85.786 177.120  72.062  0.00  0.00     0.062 C 
ENDBRANCH  28  29
ENDBRANCH  27  28
ENDBRANCH  25  27
ENDBRANCH  20  25
ENDBRANCH   1   3
TORSDOF 5
ENDMDL
MODEL 7
REMARK VINA RESULT:      -9.6      2.986      8.730
REMARK  5 active torsions:
REMARK  status: ('A' for Active; 'I' for Inactive)
REMARK    1  A    between atoms: O_1  and  C20_22 
REMARK    2  A    between atoms: C4_6  and  C13_15 
REMARK    3  A    between atoms: C13_15  and  C21_23 
REMARK    4  A    between atoms: C21_23  and  C25_27 
REMARK    5  A    between atoms: C25_27  and  C26_28 
ROOT
ATOM      1  O   LIG d          87.708 175.235  68.443  0.00  0.00    -0.597 OA
ATOM      2  H42 LIG d          87.698 174.506  67.801  0.00  0.00     0.399 HD
ENDROOT
BRANCH   1   3
ATOM      3  C20 LIG d          88.456 174.802  69.584  0.00  0.00     0.181 C 
ATOM      4  C18 LIG d          88.531 173.250  69.601  0.00  0.00    -0.040 C 
ATOM      5  C14 LIG d          87.158 172.643  69.988  0.00  0.00    -0.088 C 
ATOM      6  C23 LIG d          89.062 172.782  68.221  0.00  0.00     0.022 C 
ATOM      7  C24 LIG d          89.575 172.790  70.648  0.00  0.00     0.022 C 
ATOM      8  C8  LIG d          86.461 173.253  71.212  0.00  0.00     0.037 C 
ATOM      9  C17 LIG d          86.624 171.593  69.338  0.00  0.00    -0.051 C 
ATOM     10  C3  LIG d          85.036 172.645  71.570  0.00  0.00    -0.023 C 
ATOM     11  C16 LIG d          86.432 174.797  71.076  0.00  0.00     0.033 C 
ATOM     12  C2  LIG d          84.923 171.111  71.193  0.00  0.00     0.011 C 
ATOM     13  C7  LIG d          84.733 172.910  73.091  0.00  0.00     0.004 C 
ATOM     14  C15 LIG d          83.924 173.384  70.765  0.00  0.00     0.016 C 
ATOM     15  C   LIG d          85.514 170.142  72.268  0.00  0.00    -0.038 C 
ATOM     16  C10 LIG d          85.395 170.852  69.752  0.00  0.00     0.054 C 
ATOM     17  C1  LIG d          84.837 170.444  73.656  0.00  0.00    -0.038 C 
ATOM     18  C6  LIG d          85.154 168.648  72.112  0.00  0.00     0.007 C 
ATOM     19  C11 LIG d          87.075 170.179  72.284  0.00  0.00     0.020 C 
ATOM     20  C4  LIG d          85.375 169.272  74.512  0.00  0.00    -0.004 C 
ATOM     21  C5  LIG d          85.238 171.856  74.095  0.00  0.00     0.018 C 
ATOM     22  C12 LIG d          83.272 170.370  73.652  0.00  0.00     0.019 C 
ATOM     23  C9  LIG d          85.279 168.064  73.542  0.00  0.00     0.005 C 
ATOM     24  C19 LIG d          87.818 175.389  70.841  0.00  0.00     0.026 C 
BRANCH  20  25
ATOM     25  C13 LIG d          84.686 169.007  75.847  0.00  0.00    -0.008 C 
ATOM     26  C22 LIG d          85.396 169.786  76.959  0.00  0.00     0.012 C 
BRANCH  25  27
ATOM     27  C21 LIG d          84.656 167.507  76.211  0.00  0.00     0.006 C 
BRANCH  27  28
ATOM     28  C25 LIG d          83.286 166.828  76.080  0.00  0.00     0.050 C 
BRANCH  28  29
ATOM     29  C26 LIG d          83.387 165.398  75.627  0.00  0.00    -0.054 C 
ATOM     30  C27 LIG d          83.066 164.876  74.428  0.00  0.00    -0.126 C 
ATOM     31  C28 LIG d          83.250 163.404  74.169  0.00  0.00     0.062 C 
ATOM     32  C29 LIG d          82.513 165.642  73.261  0.00  0.00     0.062 C 
ENDBRANCH  28  29
ENDBRANCH  27  28
ENDBRANCH  25  27
ENDBRANCH  20  25
ENDBRANCH   1   3
TORSDOF 5
ENDMDL
MODEL 8
REMARK VINA RESULT:      -9.5      3.079      8.246
REMARK  5 active torsions:
REMARK  status: ('A' for Active; 'I' for Inactive)
REMARK    1  A    between atoms: O_1  and  C20_22 
REMARK    2  A    between atoms: C4_6  and  C13_15 
REMARK    3  A    between atoms: C13_15  and  C21_23 
REMARK    4  A    between atoms: C21_23  and  C25_27 
REMARK    5  A    between atoms: C25_27  and  C26_28 
ROOT
ATOM      1  O   LIG d          86.705 173.559  71.073  0.00  0.00    -0.597 OA
ATOM      2  H42 LIG d          87.607 173.347  70.779  0.00  0.00     0.399 HD
ENDROOT
BRANCH   1   3
ATOM      3  C20 LIG d          85.865 172.448  70.744  0.00  0.00     0.181 C 
ATOM      4  C18 LIG d          85.032 172.038  71.991  0.00  0.00    -0.040 C 
ATOM      5  C14 LIG d          85.932 171.338  73.041  0.00  0.00    -0.088 C 
ATOM      6  C23 LIG d          84.311 173.304  72.523  0.00  0.00     0.022 C 
ATOM      7  C24 LIG d          83.919 171.048  71.571  0.00  0.00     0.022 C 
ATOM      8  C8  LIG d          86.865 170.237  72.517  0.00  0.00     0.037 C 
ATOM      9  C17 LIG d          85.863 171.620  74.354  0.00  0.00    -0.051 C 
ATOM     10  C3  LIG d          87.809 169.558  73.601  0.00  0.00    -0.023 C 
ATOM     11  C16 LIG d          87.651 170.764  71.290  0.00  0.00     0.033 C 
ATOM     12  C2  LIG d          87.140 169.505  75.035  0.00  0.00     0.011 C 
ATOM     13  C7  LIG d          88.235 168.131  73.088  0.00  0.00     0.004 C 
ATOM     14  C15 LIG d          89.125 170.381  73.752  0.00  0.00     0.016 C 
ATOM     15  C   LIG d          86.170 168.298  75.246  0.00  0.00    -0.038 C 
ATOM     16  C10 LIG d          86.573 170.877  75.439  0.00  0.00     0.054 C 
ATOM     17  C1  LIG d          86.936 166.963  74.921  0.00  0.00    -0.038 C 
ATOM     18  C6  LIG d          85.740 168.014  76.702  0.00  0.00     0.007 C 
ATOM     19  C11 LIG d          84.832 168.489  74.463  0.00  0.00     0.020 C 
ATOM     20  C4  LIG d          85.906 165.906  75.388  0.00  0.00    -0.004 C 
ATOM     21  C5  LIG d          87.295 166.960  73.431  0.00  0.00     0.018 C 
ATOM     22  C12 LIG d          88.258 166.751  75.733  0.00  0.00     0.019 C 
ATOM     23  C9  LIG d          85.371 166.509  76.715  0.00  0.00     0.005 C 
ATOM     24  C19 LIG d          86.735 171.318  70.202  0.00  0.00     0.026 C 
BRANCH  20  25
ATOM     25  C13 LIG d          86.400 164.473  75.553  0.00  0.00    -0.008 C 
ATOM     26  C22 LIG d          87.864 164.479  76.007  0.00  0.00     0.012 C 
BRANCH  25  27
ATOM     27  C21 LIG d          86.270 163.649  74.254  0.00  0.00     0.006 C 
BRANCH  27  28
ATOM     28  C25 LIG d          84.943 162.896  74.086  0.00  0.00     0.050 C 
BRANCH  28  29
ATOM     29  C26 LIG d          83.925 163.680  73.306  0.00  0.00    -0.054 C 
ATOM     30  C27 LIG d          82.969 164.506  73.773  0.00  0.00    -0.126 C 
ATOM     31  C28 LIG d          82.043 165.212  72.818  0.00  0.00     0.062 C 
ATOM     32  C29 LIG d          82.711 164.815  75.220  0.00  0.00     0.062 C 
ENDBRANCH  28  29
ENDBRANCH  27  28
ENDBRANCH  25  27
ENDBRANCH  20  25
ENDBRANCH   1   3
TORSDOF 5
ENDMDL
MODEL 9
REMARK VINA RESULT:      -9.5      2.851      8.085
REMARK  5 active torsions:
REMARK  status: ('A' for Active; 'I' for Inactive)
REMARK    1  A    between atoms: O_1  and  C20_22 
REMARK    2  A    between atoms: C4_6  and  C13_15 
REMARK    3  A    between atoms: C13_15  and  C21_23 
REMARK    4  A    between atoms: C21_23  and  C25_27 
REMARK    5  A    between atoms: C25_27  and  C26_28 
ROOT
ATOM      1  O   LIG d          87.088 173.948  71.376  0.00  0.00    -0.597 OA
ATOM      2  H42 LIG d          87.549 173.559  72.138  0.00  0.00     0.399 HD
ENDROOT
BRANCH   1   3
ATOM      3  C20 LIG d          86.733 172.882  70.488  0.00  0.00     0.181 C 
ATOM      4  C18 LIG d          85.265 172.447  70.758  0.00  0.00    -0.040 C 
ATOM      5  C14 LIG d          85.165 171.669  72.095  0.00  0.00    -0.088 C 
ATOM      6  C23 LIG d          84.371 173.713  70.695  0.00  0.00     0.022 C 
ATOM      7  C24 LIG d          84.781 171.516  69.619  0.00  0.00     0.022 C 
ATOM      8  C8  LIG d          86.202 170.561  72.322  0.00  0.00     0.037 C 
ATOM      9  C17 LIG d          84.186 171.895  72.990  0.00  0.00    -0.051 C 
ATOM     10  C3  LIG d          86.108 169.801  73.715  0.00  0.00    -0.023 C 
ATOM     11  C16 LIG d          87.622 171.114  72.040  0.00  0.00     0.033 C 
ATOM     12  C2  LIG d          84.622 169.709  74.252  0.00  0.00     0.011 C 
ATOM     13  C7  LIG d          86.781 168.385  73.573  0.00  0.00     0.004 C 
ATOM     14  C15 LIG d          86.927 170.570  74.797  0.00  0.00     0.016 C 
ATOM     15  C   LIG d          83.794 168.528  73.648  0.00  0.00    -0.038 C 
ATOM     16  C10 LIG d          83.926 171.081  74.215  0.00  0.00     0.054 C 
ATOM     17  C1  LIG d          84.574 167.183  73.884  0.00  0.00    -0.038 C 
ATOM     18  C6  LIG d          82.462 168.195  74.357  0.00  0.00     0.007 C 
ATOM     19  C11 LIG d          83.400 168.801  72.162  0.00  0.00     0.020 C 
ATOM     20  C4  LIG d          83.522 166.143  73.428  0.00  0.00    -0.004 C 
ATOM     21  C5  LIG d          85.881 167.233  73.086  0.00  0.00     0.018 C 
ATOM     22  C12 LIG d          84.937 166.889  75.379  0.00  0.00     0.019 C 
ATOM     23  C9  LIG d          82.202 166.705  74.022  0.00  0.00     0.005 C 
ATOM     24  C19 LIG d          87.739 171.747  70.656  0.00  0.00     0.026 C 
BRANCH  20  25
ATOM     25  C13 LIG d          83.764 164.688  73.813  0.00  0.00    -0.008 C 
ATOM     26  C22 LIG d          83.322 164.454  75.262  0.00  0.00     0.012 C 
BRANCH  25  27
ATOM     27  C21 LIG d          85.243 164.273  73.657  0.00  0.00     0.006 C 
BRANCH  27  28
ATOM     28  C25 LIG d          85.841 163.515  74.851  0.00  0.00     0.050 C 
BRANCH  28  29
ATOM     29  C26 LIG d          87.109 164.143  75.360  0.00  0.00    -0.054 C 
ATOM     30  C27 LIG d          87.285 164.894  76.464  0.00  0.00    -0.126 C 
ATOM     31  C28 LIG d          88.651 165.428  76.808  0.00  0.00     0.062 C 
ATOM     32  C29 LIG d          86.211 165.278  77.441  0.00  0.00     0.062 C 
ENDBRANCH  28  29
ENDBRANCH  27  28
ENDBRANCH  25  27
ENDBRANCH  20  25
ENDBRANCH   1   3
TORSDOF 5
ENDMDL
