MODEL 1
REMARK VINA RESULT:     -10.4      0.000      0.000
REMARK  6 active torsions:
REMARK  status: ('A' for Active; 'I' for Inactive)
REMARK    1  A    between atoms: O_1  and  C7_10 
REMARK    2  A    between atoms: O1_2  and  C20_23 
REMARK    3  A    between atoms: C4_7  and  C13_16 
REMARK    4  A    between atoms: C13_16  and  C21_24 
REMARK    5  A    between atoms: C21_24  and  C25_28 
REMARK    6  A    between atoms: C25_28  and  C26_29 
ROOT
ATOM      1  O   LIG d          83.235 170.104  74.235  0.00  0.00    -0.605 OA
ATOM      2  H28 LIG d          82.553 170.793  74.165  0.00  0.00     0.398 HD
ENDROOT
BRANCH   1   3
ATOM      3  C7  LIG d          84.506 170.729  74.066  0.00  0.00     0.176 C 
ATOM      4  C3  LIG d          85.618 170.059  74.983  0.00  0.00    -0.013 C 
ATOM      5  C2  LIG d          87.077 170.455  74.494  0.00  0.00     0.007 C 
ATOM      6  C8  LIG d          85.421 168.477  75.086  0.00  0.00     0.060 C 
ATOM      7  C15 LIG d          85.445 170.693  76.400  0.00  0.00     0.021 C 
ATOM      8  C   LIG d          87.261 170.438  72.939  0.00  0.00    -0.039 C 
ATOM      9  C10 LIG d          88.161 169.696  75.279  0.00  0.00     0.055 C 
ATOM     10  C1  LIG d          86.189 171.382  72.286  0.00  0.00    -0.036 C 
ATOM     11  C6  LIG d          88.556 171.083  72.395  0.00  0.00     0.010 C 
ATOM     12  C11 LIG d          87.266 168.983  72.375  0.00  0.00     0.027 C 
ATOM     13  C4  LIG d          86.662 171.403  70.811  0.00  0.00    -0.003 C 
ATOM     14  C5  LIG d          84.804 170.790  72.553  0.00  0.00    -0.002 C 
ATOM     15  C12 LIG d          86.198 172.856  72.818  0.00  0.00     0.019 C 
ATOM     16  C9  LIG d          88.205 171.501  70.945  0.00  0.00     0.008 C 
ATOM     17  C17 LIG d          87.891 168.244  75.482  0.00  0.00    -0.048 C 
ATOM     18  C14 LIG d          86.691 167.651  75.353  0.00  0.00    -0.107 C 
ATOM     19  C18 LIG d          86.511 166.112  75.417  0.00  0.00    -0.043 C 
ATOM     20  C20 LIG d          85.341 165.747  76.372  0.00  0.00     0.219 C 
ATOM     21  C23 LIG d          86.202 165.591  73.992  0.00  0.00     0.031 C 
ATOM     22  C24 LIG d          87.775 165.346  75.891  0.00  0.00     0.031 C 
ATOM     23  C19 LIG d          84.071 166.550  76.100  0.00  0.00    -0.007 C 
ATOM     24  C16 LIG d          84.354 168.051  76.132  0.00  0.00     0.033 C 
BRANCH  13  25
ATOM     25  C13 LIG d          86.082 172.482  69.903  0.00  0.00    -0.009 C 
ATOM     26  C22 LIG d          84.678 172.078  69.446  0.00  0.00     0.011 C 
BRANCH  25  27
ATOM     27  C21 LIG d          87.031 172.733  68.711  0.00  0.00     0.008 C 
BRANCH  27  28
ATOM     28  C25 LIG d          87.602 174.155  68.606  0.00  0.00     0.050 C 
BRANCH  28  29
ATOM     29  C26 LIG d          86.962 175.109  69.576  0.00  0.00    -0.054 C 
ATOM     30  C27 LIG d          87.449 175.566  70.746  0.00  0.00    -0.124 C 
ATOM     31  C28 LIG d          86.647 176.534  71.575  0.00  0.00     0.064 C 
ATOM     32  C29 LIG d          88.776 175.195  71.344  0.00  0.00     0.064 C 
ENDBRANCH  28  29
ENDBRANCH  27  28
ENDBRANCH  25  27
ENDBRANCH  13  25
BRANCH  20  33
ATOM     33  O1  LIG d          85.742 165.969  77.729  0.00  0.00    -0.599 OA
ATOM     34  H42 LIG d          86.713 166.002  77.747  0.00  0.00     0.401 HD
ENDBRANCH  20  33
ENDBRANCH   1   3
TORSDOF 6
ENDMDL
MODEL 2
REMARK VINA RESULT:     -10.3      1.604      2.119
REMARK  6 active torsions:
REMARK  status: ('A' for Active; 'I' for Inactive)
REMARK    1  A    between atoms: O_1  and  C7_10 
REMARK    2  A    between atoms: O1_2  and  C20_23 
REMARK    3  A    between atoms: C4_7  and  C13_16 
REMARK    4  A    between atoms: C13_16  and  C21_24 
REMARK    5  A    between atoms: C21_24  and  C25_28 
REMARK    6  A    between atoms: C25_28  and  C26_29 
ROOT
ATOM      1  O   LIG d          83.523 170.834  74.161  0.00  0.00    -0.605 OA
ATOM      2  H28 LIG d          83.382 169.897  73.939  0.00  0.00     0.398 HD
ENDROOT
BRANCH   1   3
ATOM      3  C7  LIG d          84.926 171.042  74.307  0.00  0.00     0.176 C 
ATOM      4  C3  LIG d          85.630 169.816  75.034  0.00  0.00    -0.013 C 
ATOM      5  C2  LIG d          87.204 169.850  74.818  0.00  0.00     0.007 C 
ATOM      6  C8  LIG d          84.988 168.422  74.591  0.00  0.00     0.060 C 
ATOM      7  C15 LIG d          85.394 170.030  76.563  0.00  0.00     0.021 C 
ATOM      8  C   LIG d          87.646 170.230  73.365  0.00  0.00    -0.039 C 
ATOM      9  C10 LIG d          87.880 168.592  75.389  0.00  0.00     0.055 C 
ATOM     10  C1  LIG d          87.009 171.614  72.980  0.00  0.00    -0.036 C 
ATOM     11  C6  LIG d          89.144 170.558  73.167  0.00  0.00     0.010 C 
ATOM     12  C11 LIG d          87.347 169.080  72.353  0.00  0.00     0.027 C 
ATOM     13  C4  LIG d          87.721 171.911  71.637  0.00  0.00    -0.003 C 
ATOM     14  C5  LIG d          85.490 171.443  72.928  0.00  0.00    -0.002 C 
ATOM     15  C12 LIG d          87.333 172.785  73.969  0.00  0.00     0.019 C 
ATOM     16  C9  LIG d          89.183 171.470  71.915  0.00  0.00     0.008 C 
ATOM     17  C17 LIG d          87.187 167.309  75.078  0.00  0.00    -0.048 C 
ATOM     18  C14 LIG d          85.912 167.195  74.668  0.00  0.00    -0.107 C 
ATOM     19  C18 LIG d          85.305 165.845  74.204  0.00  0.00    -0.043 C 
ATOM     20  C20 LIG d          83.931 165.610  74.891  0.00  0.00     0.219 C 
ATOM     21  C23 LIG d          85.119 165.889  72.668  0.00  0.00     0.031 C 
ATOM     22  C24 LIG d          86.203 164.613  74.494  0.00  0.00     0.031 C 
ATOM     23  C19 LIG d          83.001 166.818  74.802  0.00  0.00    -0.007 C 
ATOM     24  C16 LIG d          83.678 168.072  75.351  0.00  0.00     0.033 C 
BRANCH  13  25
ATOM     25  C13 LIG d          87.631 173.334  71.096  0.00  0.00    -0.009 C 
ATOM     26  C22 LIG d          86.623 173.390  69.945  0.00  0.00     0.011 C 
BRANCH  25  27
ATOM     27  C21 LIG d          89.031 173.823  70.665  0.00  0.00     0.008 C 
BRANCH  27  28
ATOM     28  C25 LIG d          89.235 174.002  69.153  0.00  0.00     0.050 C 
BRANCH  28  29
ATOM     29  C26 LIG d          89.755 175.367  68.797  0.00  0.00    -0.054 C 
ATOM     30  C27 LIG d          89.728 175.986  67.600  0.00  0.00    -0.124 C 
ATOM     31  C28 LIG d          90.300 177.371  67.450  0.00  0.00     0.064 C 
ATOM     32  C29 LIG d          89.158 175.414  66.333  0.00  0.00     0.064 C 
ENDBRANCH  28  29
ENDBRANCH  27  28
ENDBRANCH  25  27
ENDBRANCH  13  25
BRANCH  20  33
ATOM     33  O1  LIG d          84.133 165.287  76.271  0.00  0.00    -0.599 OA
ATOM     34  H42 LIG d          83.292 164.944  76.618  0.00  0.00     0.401 HD
ENDBRANCH  20  33
ENDBRANCH   1   3
TORSDOF 6
ENDMDL
MODEL 3
REMARK VINA RESULT:     -10.2      1.179      1.594
REMARK  6 active torsions:
REMARK  status: ('A' for Active; 'I' for Inactive)
REMARK    1  A    between atoms: O_1  and  C7_10 
REMARK    2  A    between atoms: O1_2  and  C20_23 
REMARK    3  A    between atoms: C4_7  and  C13_16 
REMARK    4  A    between atoms: C13_16  and  C21_24 
REMARK    5  A    between atoms: C21_24  and  C25_28 
REMARK    6  A    between atoms: C25_28  and  C26_29 
ROOT
ATOM      1  O   LIG d          83.132 170.590  73.979  0.00  0.00    -0.605 OA
ATOM      2  H28 LIG d          82.893 169.996  74.710  0.00  0.00     0.398 HD
ENDROOT
BRANCH   1   3
ATOM      3  C7  LIG d          84.521 170.893  74.099  0.00  0.00     0.176 C 
ATOM      4  C3  LIG d          85.308 169.752  74.877  0.00  0.00    -0.013 C 
ATOM      5  C2  LIG d          86.874 169.875  74.641  0.00  0.00     0.007 C 
ATOM      6  C8  LIG d          84.751 168.300  74.510  0.00  0.00     0.060 C 
ATOM      7  C15 LIG d          85.071 170.026  76.396  0.00  0.00     0.021 C 
ATOM      8  C   LIG d          87.280 170.209  73.166  0.00  0.00    -0.039 C 
ATOM      9  C10 LIG d          87.633 168.691  75.265  0.00  0.00     0.055 C 
ATOM     10  C1  LIG d          86.553 171.529  72.722  0.00  0.00    -0.036 C 
ATOM     11  C6  LIG d          88.751 170.620  72.936  0.00  0.00     0.010 C 
ATOM     12  C11 LIG d          87.045 168.994  72.216  0.00  0.00     0.027 C 
ATOM     13  C4  LIG d          87.233 171.804  71.357  0.00  0.00    -0.003 C 
ATOM     14  C5  LIG d          85.047 171.261  72.695  0.00  0.00    -0.002 C 
ATOM     15  C12 LIG d          86.810 172.766  73.649  0.00  0.00     0.019 C 
ATOM     16  C9  LIG d          88.722 171.469  71.640  0.00  0.00     0.008 C 
ATOM     17  C17 LIG d          87.021 167.353  75.025  0.00  0.00    -0.048 C 
ATOM     18  C14 LIG d          85.752 167.139  74.636  0.00  0.00    -0.107 C 
ATOM     19  C18 LIG d          85.228 165.732  74.245  0.00  0.00    -0.043 C 
ATOM     20  C20 LIG d          83.878 165.446  74.959  0.00  0.00     0.219 C 
ATOM     21  C23 LIG d          85.026 165.688  72.711  0.00  0.00     0.031 C 
ATOM     22  C24 LIG d          86.205 164.575  74.585  0.00  0.00     0.031 C 
ATOM     23  C19 LIG d          82.872 166.587  74.822  0.00  0.00    -0.007 C 
ATOM     24  C16 LIG d          83.473 167.907  75.301  0.00  0.00     0.033 C 
BRANCH  13  25
ATOM     25  C13 LIG d          87.049 173.190  70.749  0.00  0.00    -0.009 C 
ATOM     26  C22 LIG d          86.305 173.077  69.415  0.00  0.00     0.011 C 
BRANCH  25  27
ATOM     27  C21 LIG d          88.419 173.882  70.592  0.00  0.00     0.008 C 
BRANCH  27  28
ATOM     28  C25 LIG d          88.503 175.318  71.131  0.00  0.00     0.050 C 
BRANCH  28  29
ATOM     29  C26 LIG d          87.277 175.718  71.904  0.00  0.00    -0.054 C 
ATOM     30  C27 LIG d          86.437 176.745  71.667  0.00  0.00    -0.124 C 
ATOM     31  C28 LIG d          85.248 176.974  72.563  0.00  0.00     0.064 C 
ATOM     32  C29 LIG d          86.564 177.738  70.547  0.00  0.00     0.064 C 
ENDBRANCH  28  29
ENDBRANCH  27  28
ENDBRANCH  25  27
ENDBRANCH  13  25
BRANCH  20  33
ATOM     33  O1  LIG d          84.110 165.204  76.350  0.00  0.00    -0.599 OA
ATOM     34  H42 LIG d          83.270 165.345  76.817  0.00  0.00     0.401 HD
ENDBRANCH  20  33
ENDBRANCH   1   3
TORSDOF 6
ENDMDL
MODEL 4
REMARK VINA RESULT:     -10.2      1.745      2.561
REMARK  6 active torsions:
REMARK  status: ('A' for Active; 'I' for Inactive)
REMARK    1  A    between atoms: O_1  and  C7_10 
REMARK    2  A    between atoms: O1_2  and  C20_23 
REMARK    3  A    between atoms: C4_7  and  C13_16 
REMARK    4  A    between atoms: C13_16  and  C21_24 
REMARK    5  A    between atoms: C21_24  and  C25_28 
REMARK    6  A    between atoms: C25_28  and  C26_29 
ROOT
ATOM      1  O   LIG d          83.626 170.815  71.754  0.00  0.00    -0.605 OA
ATOM      2  H28 LIG d          83.454 169.957  72.176  0.00  0.00     0.398 HD
ENDROOT
BRANCH   1   3
ATOM      3  C7  LIG d          84.777 171.385  72.375  0.00  0.00     0.176 C 
ATOM      4  C3  LIG d          84.941 170.889  73.877  0.00  0.00    -0.013 C 
ATOM      5  C2  LIG d          86.410 171.171  74.415  0.00  0.00     0.007 C 
ATOM      6  C8  LIG d          84.520 169.357  74.039  0.00  0.00     0.060 C 
ATOM      7  C15 LIG d          83.984 171.780  74.730  0.00  0.00     0.021 C 
ATOM      8  C   LIG d          87.545 170.860  73.382  0.00  0.00    -0.039 C 
ATOM      9  C10 LIG d          86.626 170.563  75.811  0.00  0.00     0.055 C 
ATOM     10  C1  LIG d          87.277 171.675  72.065  0.00  0.00    -0.036 C 
ATOM     11  C6  LIG d          88.956 171.378  73.737  0.00  0.00     0.010 C 
ATOM     12  C11 LIG d          87.720 169.325  73.164  0.00  0.00     0.027 C 
ATOM     13  C4  LIG d          88.583 171.412  71.276  0.00  0.00    -0.003 C 
ATOM     14  C5  LIG d          85.981 171.157  71.437  0.00  0.00    -0.002 C 
ATOM     15  C12 LIG d          87.135 173.222  72.266  0.00  0.00     0.019 C 
ATOM     16  C9  LIG d          89.677 171.519  72.372  0.00  0.00     0.008 C 
ATOM     17  C17 LIG d          86.102 169.178  75.983  0.00  0.00    -0.048 C 
ATOM     18  C14 LIG d          85.200 168.584  75.182  0.00  0.00    -0.107 C 
ATOM     19  C18 LIG d          84.823 167.086  75.321  0.00  0.00    -0.043 C 
ATOM     20  C20 LIG d          83.278 166.919  75.315  0.00  0.00     0.219 C 
ATOM     21  C23 LIG d          85.435 166.309  74.131  0.00  0.00     0.031 C 
ATOM     22  C24 LIG d          85.373 166.411  76.606  0.00  0.00     0.031 C 
ATOM     23  C19 LIG d          82.597 167.669  74.172  0.00  0.00    -0.007 C 
ATOM     24  C16 LIG d          82.987 169.145  74.176  0.00  0.00     0.033 C 
BRANCH  13  25
ATOM     25  C13 LIG d          88.869 172.307  70.074  0.00  0.00    -0.009 C 
ATOM     26  C22 LIG d          88.605 171.536  68.778  0.00  0.00     0.011 C 
BRANCH  25  27
ATOM     27  C21 LIG d          90.315 172.841  70.148  0.00  0.00     0.008 C 
BRANCH  27  28
ATOM     28  C25 LIG d          90.483 174.342  69.865  0.00  0.00     0.050 C 
BRANCH  28  29
ATOM     29  C26 LIG d          90.266 174.686  68.418  0.00  0.00    -0.054 C 
ATOM     30  C27 LIG d          89.154 175.170  67.831  0.00  0.00    -0.124 C 
ATOM     31  C28 LIG d          89.142 175.461  66.353  0.00  0.00     0.064 C 
ATOM     32  C29 LIG d          87.856 175.468  68.527  0.00  0.00     0.064 C 
ENDBRANCH  28  29
ENDBRANCH  27  28
ENDBRANCH  25  27
ENDBRANCH  13  25
BRANCH  20  33
ATOM     33  O1  LIG d          82.739 167.388  76.556  0.00  0.00    -0.599 OA
ATOM     34  H42 LIG d          82.184 166.679  76.922  0.00  0.00     0.401 HD
ENDBRANCH  20  33
ENDBRANCH   1   3
TORSDOF 6
ENDMDL
MODEL 5
REMARK VINA RESULT:     -10.0      1.467      1.966
REMARK  6 active torsions:
REMARK  status: ('A' for Active; 'I' for Inactive)
REMARK    1  A    between atoms: O_1  and  C7_10 
REMARK    2  A    between atoms: O1_2  and  C20_23 
REMARK    3  A    between atoms: C4_7  and  C13_16 
REMARK    4  A    between atoms: C13_16  and  C21_24 
REMARK    5  A    between atoms: C21_24  and  C25_28 
REMARK    6  A    between atoms: C25_28  and  C26_29 
ROOT
ATOM      1  O   LIG d          82.930 171.047  71.724  0.00  0.00    -0.605 OA
ATOM      2  H28 LIG d          82.537 170.785  72.574  0.00  0.00     0.398 HD
ENDROOT
BRANCH   1   3
ATOM      3  C7  LIG d          84.144 171.742  72.000  0.00  0.00     0.176 C 
ATOM      4  C3  LIG d          84.782 171.287  73.383  0.00  0.00    -0.013 C 
ATOM      5  C2  LIG d          86.305 171.730  73.483  0.00  0.00     0.007 C 
ATOM      6  C8  LIG d          84.587 169.722  73.634  0.00  0.00     0.060 C 
ATOM      7  C15 LIG d          84.021 172.086  74.489  0.00  0.00     0.021 C 
ATOM      8  C   LIG d          87.123 171.525  72.164  0.00  0.00    -0.039 C 
ATOM      9  C10 LIG d          86.973 171.168  74.750  0.00  0.00     0.055 C 
ATOM     10  C1  LIG d          86.406 172.288  70.993  0.00  0.00    -0.036 C 
ATOM     11  C6  LIG d          88.515 172.193  72.110  0.00  0.00     0.010 C 
ATOM     12  C11 LIG d          87.389 170.014  71.880  0.00  0.00     0.027 C 
ATOM     13  C4  LIG d          87.453 172.153  69.859  0.00  0.00    -0.003 C 
ATOM     14  C5  LIG d          85.047 171.629  70.753  0.00  0.00    -0.002 C 
ATOM     15  C12 LIG d          86.167 173.815  71.251  0.00  0.00     0.019 C 
ATOM     16  C9  LIG d          88.797 172.390  70.599  0.00  0.00     0.008 C 
ATOM     17  C17 LIG d          86.668 169.738  75.041  0.00  0.00    -0.048 C 
ATOM     18  C14 LIG d          85.643 169.041  74.522  0.00  0.00    -0.107 C 
ATOM     19  C18 LIG d          85.479 167.514  74.738  0.00  0.00    -0.043 C 
ATOM     20  C20 LIG d          84.023 167.186  75.171  0.00  0.00     0.219 C 
ATOM     21  C23 LIG d          85.804 166.789  73.410  0.00  0.00     0.031 C 
ATOM     22  C24 LIG d          86.441 166.918  75.801  0.00  0.00     0.031 C 
ATOM     23  C19 LIG d          82.970 167.844  74.283  0.00  0.00    -0.007 C 
ATOM     24  C16 LIG d          83.188 169.353  74.200  0.00  0.00     0.033 C 
BRANCH  13  25
ATOM     25  C13 LIG d          87.288 173.056  68.641  0.00  0.00    -0.009 C 
ATOM     26  C22 LIG d          86.341 172.399  67.632  0.00  0.00     0.011 C 
BRANCH  25  27
ATOM     27  C21 LIG d          88.669 173.366  68.024  0.00  0.00     0.008 C 
BRANCH  27  28
ATOM     28  C25 LIG d          88.931 174.843  67.695  0.00  0.00     0.050 C 
BRANCH  28  29
ATOM     29  C26 LIG d          88.093 175.778  68.521  0.00  0.00    -0.054 C 
ATOM     30  C27 LIG d          88.372 176.304  69.730  0.00  0.00    -0.124 C 
ATOM     31  C28 LIG d          87.394 177.237  70.394  0.00  0.00     0.064 C 
ATOM     32  C29 LIG d          89.618 176.047  70.529  0.00  0.00     0.064 C 
ENDBRANCH  28  29
ENDBRANCH  27  28
ENDBRANCH  25  27
ENDBRANCH  13  25
BRANCH  20  33
ATOM     33  O1  LIG d          83.815 167.614  76.521  0.00  0.00    -0.599 OA
ATOM     34  H42 LIG d          83.173 168.343  76.503  0.00  0.00     0.401 HD
ENDBRANCH  20  33
ENDBRANCH   1   3
TORSDOF 6
ENDMDL
MODEL 6
REMARK VINA RESULT:     -10.0      1.709      2.635
REMARK  6 active torsions:
REMARK  status: ('A' for Active; 'I' for Inactive)
REMARK    1  A    between atoms: O_1  and  C7_10 
REMARK    2  A    between atoms: O1_2  and  C20_23 
REMARK    3  A    between atoms: C4_7  and  C13_16 
REMARK    4  A    between atoms: C13_16  and  C21_24 
REMARK    5  A    between atoms: C21_24  and  C25_28 
REMARK    6  A    between atoms: C25_28  and  C26_29 
ROOT
ATOM      1  O   LIG d          83.316 169.963  73.952  0.00  0.00    -0.605 OA
ATOM      2  H28 LIG d          82.747 169.864  74.735  0.00  0.00     0.398 HD
ENDROOT
BRANCH   1   3
ATOM      3  C7  LIG d          84.661 170.112  74.405  0.00  0.00     0.176 C 
ATOM      4  C3  LIG d          85.218 168.768  75.046  0.00  0.00    -0.013 C 
ATOM      5  C2  LIG d          86.803 168.801  75.155  0.00  0.00     0.007 C 
ATOM      6  C8  LIG d          84.690 167.480  74.264  0.00  0.00     0.060 C 
ATOM      7  C15 LIG d          84.680 168.737  76.512  0.00  0.00     0.021 C 
ATOM      8  C   LIG d          87.522 169.401  73.900  0.00  0.00    -0.039 C 
ATOM      9  C10 LIG d          87.364 167.452  75.634  0.00  0.00     0.055 C 
ATOM     10  C1  LIG d          86.961 170.843  73.628  0.00  0.00    -0.036 C 
ATOM     11  C6  LIG d          89.025 169.722  74.058  0.00  0.00     0.010 C 
ATOM     12  C11 LIG d          87.441 168.438  72.675  0.00  0.00     0.027 C 
ATOM     13  C4  LIG d          87.922 171.338  72.519  0.00  0.00    -0.003 C 
ATOM     14  C5  LIG d          85.484 170.718  73.249  0.00  0.00    -0.002 C 
ATOM     15  C12 LIG d          87.070 171.831  74.839  0.00  0.00     0.019 C 
ATOM     16  C9  LIG d          89.304 170.823  73.005  0.00  0.00     0.008 C 
ATOM     17  C17 LIG d          86.760 166.253  74.987  0.00  0.00    -0.048 C 
ATOM     18  C14 LIG d          85.593 166.236  74.319  0.00  0.00    -0.107 C 
ATOM     19  C18 LIG d          85.103 164.994  73.530  0.00  0.00    -0.043 C 
ATOM     20  C20 LIG d          83.622 164.682  73.884  0.00  0.00     0.219 C 
ATOM     21  C23 LIG d          85.225 165.290  72.016  0.00  0.00     0.031 C 
ATOM     22  C24 LIG d          85.937 163.710  73.787  0.00  0.00     0.031 C 
ATOM     23  C19 LIG d          82.717 165.910  73.813  0.00  0.00    -0.007 C 
ATOM     24  C16 LIG d          83.259 167.042  74.682  0.00  0.00     0.033 C 
BRANCH  13  25
ATOM     25  C13 LIG d          87.928 172.832  72.211  0.00  0.00    -0.009 C 
ATOM     26  C22 LIG d          86.684 173.200  71.398  0.00  0.00     0.011 C 
BRANCH  25  27
ATOM     27  C21 LIG d          89.233 173.213  71.480  0.00  0.00     0.008 C 
BRANCH  27  28
ATOM     28  C25 LIG d          89.435 172.566  70.102  0.00  0.00     0.050 C 
BRANCH  28  29
ATOM     29  C26 LIG d          89.428 173.571  68.984  0.00  0.00    -0.054 C 
ATOM     30  C27 LIG d          88.520 173.722  68.000  0.00  0.00    -0.124 C 
ATOM     31  C28 LIG d          88.692 174.807  66.969  0.00  0.00     0.064 C 
ATOM     32  C29 LIG d          87.290 172.882  67.810  0.00  0.00     0.064 C 
ENDBRANCH  28  29
ENDBRANCH  27  28
ENDBRANCH  25  27
ENDBRANCH  13  25
BRANCH  20  33
ATOM     33  O1  LIG d          83.548 164.135  75.205  0.00  0.00    -0.599 OA
ATOM     34  H42 LIG d          83.739 164.853  75.831  0.00  0.00     0.401 HD
ENDBRANCH  20  33
ENDBRANCH   1   3
TORSDOF 6
ENDMDL
MODEL 7
REMARK VINA RESULT:     -10.0      2.443      8.164
REMARK  6 active torsions:
REMARK  status: ('A' for Active; 'I' for Inactive)
REMARK    1  A    between atoms: O_1  and  C7_10 
REMARK    2  A    between atoms: O1_2  and  C20_23 
REMARK    3  A    between atoms: C4_7  and  C13_16 
REMARK    4  A    between atoms: C13_16  and  C21_24 
REMARK    5  A    between atoms: C21_24  and  C25_28 
REMARK    6  A    between atoms: C25_28  and  C26_29 
ROOT
ATOM      1  O   LIG d          84.903 174.342  71.746  0.00  0.00    -0.605 OA
ATOM      2  H28 LIG d          85.509 174.829  72.331  0.00  0.00     0.398 HD
ENDROOT
BRANCH   1   3
ATOM      3  C7  LIG d          85.344 172.987  71.692  0.00  0.00     0.176 C 
ATOM      4  C3  LIG d          86.449 172.771  70.570  0.00  0.00    -0.013 C 
ATOM      5  C2  LIG d          87.228 171.404  70.790  0.00  0.00     0.007 C 
ATOM      6  C8  LIG d          87.436 174.023  70.469  0.00  0.00     0.060 C 
ATOM      7  C15 LIG d          85.670 172.619  69.224  0.00  0.00     0.021 C 
ATOM      8  C   LIG d          87.591 171.103  72.283  0.00  0.00    -0.039 C 
ATOM      9  C10 LIG d          88.397 171.255  69.801  0.00  0.00     0.055 C 
ATOM     10  C1  LIG d          86.277 171.130  73.145  0.00  0.00    -0.036 C 
ATOM     11  C6  LIG d          88.087 169.673  72.594  0.00  0.00     0.010 C 
ATOM     12  C11 LIG d          88.721 172.045  72.803  0.00  0.00     0.027 C 
ATOM     13  C4  LIG d          86.798 170.608  74.507  0.00  0.00    -0.003 C 
ATOM     14  C5  LIG d          85.722 172.556  73.125  0.00  0.00    -0.002 C 
ATOM     15  C12 LIG d          85.148 170.162  72.655  0.00  0.00     0.019 C 
ATOM     16  C9  LIG d          87.758 169.461  74.093  0.00  0.00     0.008 C 
ATOM     17  C17 LIG d          89.227 172.479  69.618  0.00  0.00    -0.048 C 
ATOM     18  C14 LIG d          88.855 173.727  69.953  0.00  0.00    -0.107 C 
ATOM     19  C18 LIG d          89.829 174.932  69.888  0.00  0.00    -0.043 C 
ATOM     20  C20 LIG d          89.157 176.127  69.157  0.00  0.00     0.219 C 
ATOM     21  C23 LIG d          90.200 175.347  71.332  0.00  0.00     0.031 C 
ATOM     22  C24 LIG d          91.171 174.624  69.170  0.00  0.00     0.031 C 
ATOM     23  C19 LIG d          87.756 176.438  69.677  0.00  0.00    -0.007 C 
ATOM     24  C16 LIG d          86.865 175.198  69.628  0.00  0.00     0.033 C 
BRANCH  13  25
ATOM     25  C13 LIG d          85.759 170.163  75.531  0.00  0.00    -0.009 C 
ATOM     26  C22 LIG d          85.920 170.973  76.820  0.00  0.00     0.011 C 
BRANCH  25  27
ATOM     27  C21 LIG d          85.883 168.644  75.780  0.00  0.00     0.008 C 
BRANCH  27  28
ATOM     28  C25 LIG d          84.691 167.796  75.313  0.00  0.00     0.050 C 
BRANCH  28  29
ATOM     29  C26 LIG d          85.071 166.369  75.030  0.00  0.00    -0.054 C 
ATOM     30  C27 LIG d          85.551 165.842  73.886  0.00  0.00    -0.124 C 
ATOM     31  C28 LIG d          85.881 164.375  73.807  0.00  0.00     0.064 C 
ATOM     32  C29 LIG d          85.807 166.600  72.614  0.00  0.00     0.064 C 
ENDBRANCH  28  29
ENDBRANCH  27  28
ENDBRANCH  25  27
ENDBRANCH  13  25
BRANCH  20  33
ATOM     33  O1  LIG d          89.074 175.848  67.755  0.00  0.00    -0.599 OA
ATOM     34  H42 LIG d          88.517 176.535  67.351  0.00  0.00     0.401 HD
ENDBRANCH  20  33
ENDBRANCH   1   3
TORSDOF 6
ENDMDL
MODEL 8
REMARK VINA RESULT:      -9.9      1.759      3.021
REMARK  6 active torsions:
REMARK  status: ('A' for Active; 'I' for Inactive)
REMARK    1  A    between atoms: O_1  and  C7_10 
REMARK    2  A    between atoms: O1_2  and  C20_23 
REMARK    3  A    between atoms: C4_7  and  C13_16 
REMARK    4  A    between atoms: C13_16  and  C21_24 
REMARK    5  A    between atoms: C21_24  and  C25_28 
REMARK    6  A    between atoms: C25_28  and  C26_29 
ROOT
ATOM      1  O   LIG d          85.826 171.390  76.856  0.00  0.00    -0.605 OA
ATOM      2  H28 LIG d          85.529 172.288  77.084  0.00  0.00     0.398 HD
ENDROOT
BRANCH   1   3
ATOM      3  C7  LIG d          86.375 171.432  75.540  0.00  0.00     0.176 C 
ATOM      4  C3  LIG d          86.412 169.991  74.871  0.00  0.00    -0.013 C 
ATOM      5  C2  LIG d          86.615 170.095  73.299  0.00  0.00     0.007 C 
ATOM      6  C8  LIG d          85.126 169.128  75.262  0.00  0.00     0.060 C 
ATOM      7  C15 LIG d          87.692 169.292  75.431  0.00  0.00     0.021 C 
ATOM      8  C   LIG d          85.779 171.230  72.616  0.00  0.00    -0.039 C 
ATOM      9  C10 LIG d          86.504 168.718  72.623  0.00  0.00     0.055 C 
ATOM     10  C1  LIG d          86.117 172.601  73.305  0.00  0.00    -0.036 C 
ATOM     11  C6  LIG d          86.144 171.565  71.153  0.00  0.00     0.010 C 
ATOM     12  C11 LIG d          84.257 170.884  72.583  0.00  0.00     0.027 C 
ATOM     13  C4  LIG d          85.382 173.597  72.373  0.00  0.00    -0.003 C 
ATOM     14  C5  LIG d          85.637 172.538  74.756  0.00  0.00    -0.002 C 
ATOM     15  C12 LIG d          87.638 172.977  73.311  0.00  0.00     0.019 C 
ATOM     16  C9  LIG d          85.679 173.030  70.959  0.00  0.00     0.008 C 
ATOM     17  C17 LIG d          85.373 167.871  73.100  0.00  0.00    -0.048 C 
ATOM     18  C14 LIG d          84.697 168.054  74.248  0.00  0.00    -0.107 C 
ATOM     19  C18 LIG d          83.427 167.239  74.604  0.00  0.00    -0.043 C 
ATOM     20  C20 LIG d          83.529 166.693  76.056  0.00  0.00     0.219 C 
ATOM     21  C23 LIG d          82.194 168.166  74.482  0.00  0.00     0.031 C 
ATOM     22  C24 LIG d          83.159 166.037  73.658  0.00  0.00     0.031 C 
ATOM     23  C19 LIG d          83.936 167.759  77.071  0.00  0.00    -0.007 C 
ATOM     24  C16 LIG d          85.235 168.445  76.653  0.00  0.00     0.033 C 
BRANCH  13  25
ATOM     25  C13 LIG d          85.741 175.073  72.501  0.00  0.00    -0.009 C 
ATOM     26  C22 LIG d          84.685 175.794  73.343  0.00  0.00     0.011 C 
BRANCH  25  27
ATOM     27  C21 LIG d          85.894 175.701  71.099  0.00  0.00     0.008 C 
BRANCH  27  28
ATOM     28  C25 LIG d          87.320 176.120  70.712  0.00  0.00     0.050 C 
BRANCH  28  29
ATOM     29  C26 LIG d          87.657 175.780  69.287  0.00  0.00    -0.054 C 
ATOM     30  C27 LIG d          88.394 174.751  68.825  0.00  0.00    -0.124 C 
ATOM     31  C28 LIG d          88.610 174.578  67.344  0.00  0.00     0.064 C 
ATOM     32  C29 LIG d          89.059 173.702  69.670  0.00  0.00     0.064 C 
ENDBRANCH  28  29
ENDBRANCH  27  28
ENDBRANCH  25  27
ENDBRANCH  13  25
BRANCH  20  33
ATOM     33  O1  LIG d          84.483 165.627  76.103  0.00  0.00    -0.599 OA
ATOM     34  H42 LIG d          84.010 164.800  75.911  0.00  0.00     0.401 HD
ENDBRANCH  20  33
ENDBRANCH   1   3
TORSDOF 6
ENDMDL
MODEL 9
REMARK VINA RESULT:      -9.8      2.893      8.456
REMARK  6 active torsions:
REMARK  status: ('A' for Active; 'I' for Inactive)
REMARK    1  A    between atoms: O_1  and  C7_10 
REMARK    2  A    between atoms: O1_2  and  C20_23 
REMARK    3  A    between atoms: C4_7  and  C13_16 
REMARK    4  A    between atoms: C13_16  and  C21_24 
REMARK    5  A    between atoms: C21_24  and  C25_28 
REMARK    6  A    between atoms: C25_28  and  C26_29 
ROOT
ATOM      1  O   LIG d          85.946 172.164  68.723  0.00  0.00    -0.605 OA
ATOM      2  H28 LIG d          86.032 173.132  68.693  0.00  0.00     0.398 HD
ENDROOT
BRANCH   1   3
ATOM      3  C7  LIG d          86.680 171.694  69.852  0.00  0.00     0.176 C 
ATOM      4  C3  LIG d          88.158 172.278  69.878  0.00  0.00    -0.013 C 
ATOM      5  C2  LIG d          88.815 172.108  71.315  0.00  0.00     0.007 C 
ATOM      6  C8  LIG d          88.201 173.790  69.366  0.00  0.00     0.060 C 
ATOM      7  C15 LIG d          88.990 171.381  68.908  0.00  0.00     0.021 C 
ATOM      8  C   LIG d          87.850 172.427  72.506  0.00  0.00    -0.039 C 
ATOM      9  C10 LIG d          90.186 172.801  71.394  0.00  0.00     0.055 C 
ATOM     10  C1  LIG d          86.567 171.530  72.380  0.00  0.00    -0.036 C 
ATOM     11  C6  LIG d          88.334 172.009  73.912  0.00  0.00     0.010 C 
ATOM     12  C11 LIG d          87.557 173.956  72.617  0.00  0.00     0.027 C 
ATOM     13  C4  LIG d          85.859 171.823  73.726  0.00  0.00    -0.003 C 
ATOM     14  C5  LIG d          85.819 171.939  71.110  0.00  0.00    -0.002 C 
ATOM     15  C12 LIG d          86.845 169.990  72.305  0.00  0.00     0.019 C 
ATOM     16  C9  LIG d          87.035 171.837  74.739  0.00  0.00     0.008 C 
ATOM     17  C17 LIG d          90.240 174.161  70.787  0.00  0.00    -0.048 C 
ATOM     18  C14 LIG d          89.344 174.660  69.918  0.00  0.00    -0.107 C 
ATOM     19  C18 LIG d          89.370 176.139  69.453  0.00  0.00    -0.043 C 
ATOM     20  C20 LIG d          89.243 176.218  67.906  0.00  0.00     0.219 C 
ATOM     21  C23 LIG d          88.184 176.885  70.111  0.00  0.00     0.031 C 
ATOM     22  C24 LIG d          90.649 176.913  69.869  0.00  0.00     0.031 C 
ATOM     23  C19 LIG d          88.099 175.372  67.353  0.00  0.00    -0.007 C 
ATOM     24  C16 LIG d          88.216 173.922  67.818  0.00  0.00     0.033 C 
BRANCH  13  25
ATOM     25  C13 LIG d          84.734 170.883  74.147  0.00  0.00    -0.009 C 
ATOM     26  C22 LIG d          83.378 171.530  73.851  0.00  0.00     0.011 C 
BRANCH  25  27
ATOM     27  C21 LIG d          84.888 170.513  75.638  0.00  0.00     0.008 C 
BRANCH  27  28
ATOM     28  C25 LIG d          85.059 169.016  75.935  0.00  0.00     0.050 C 
BRANCH  28  29
ATOM     29  C26 LIG d          84.679 168.146  74.769  0.00  0.00    -0.054 C 
ATOM     30  C27 LIG d          83.594 167.358  74.632  0.00  0.00    -0.124 C 
ATOM     31  C28 LIG d          83.389 166.564  73.368  0.00  0.00     0.064 C 
ATOM     32  C29 LIG d          82.510 167.176  75.656  0.00  0.00     0.064 C 
ENDBRANCH  28  29
ENDBRANCH  27  28
ENDBRANCH  25  27
ENDBRANCH  13  25
BRANCH  20  33
ATOM     33  O1  LIG d          90.467 175.787  67.301  0.00  0.00    -0.599 OA
ATOM     34  H42 LIG d          90.237 175.271  66.510  0.00  0.00     0.401 HD
ENDBRANCH  20  33
ENDBRANCH   1   3
TORSDOF 6
ENDMDL
