MODEL 1
REMARK VINA RESULT:     -11.1      0.000      0.000
REMARK  6 active torsions:
REMARK  status: ('A' for Active; 'I' for Inactive)
REMARK    1  A    between atoms: O_1  and  C7_10 
REMARK    2  A    between atoms: O1_2  and  C20_23 
REMARK    3  A    between atoms: C4_7  and  C13_16 
REMARK    4  A    between atoms: C13_16  and  C21_24 
REMARK    5  A    between atoms: C21_24  and  C25_28 
REMARK    6  A    between atoms: C25_28  and  C26_29 
ROOT
ATOM      1  O   LIG d          82.448 168.387  71.143  0.00  0.00    -0.605 OA
ATOM      2  H28 LIG d          81.683 168.897  70.828  0.00  0.00     0.398 HD
ENDROOT
BRANCH   1   3
ATOM      3  C7  LIG d          83.289 169.271  71.881  0.00  0.00     0.176 C 
ATOM      4  C3  LIG d          83.637 168.689  73.319  0.00  0.00    -0.013 C 
ATOM      5  C2  LIG d          84.882 169.444  73.955  0.00  0.00     0.007 C 
ATOM      6  C8  LIG d          83.843 167.106  73.279  0.00  0.00     0.060 C 
ATOM      7  C15 LIG d          82.411 169.027  74.226  0.00  0.00     0.021 C 
ATOM      8  C   LIG d          86.046 169.728  72.948  0.00  0.00    -0.039 C 
ATOM      9  C10 LIG d          85.320 168.794  75.279  0.00  0.00     0.055 C 
ATOM     10  C1  LIG d          85.480 170.538  71.726  0.00  0.00    -0.036 C 
ATOM     11  C6  LIG d          87.147 170.700  73.428  0.00  0.00     0.010 C 
ATOM     12  C11 LIG d          86.803 168.421  72.558  0.00  0.00     0.027 C 
ATOM     13  C4  LIG d          86.784 170.901  70.973  0.00  0.00    -0.003 C 
ATOM     14  C5  LIG d          84.485 169.646  70.981  0.00  0.00    -0.002 C 
ATOM     15  C12 LIG d          84.750 171.872  72.101  0.00  0.00     0.019 C 
ATOM     16  C9  LIG d          87.753 171.280  72.125  0.00  0.00     0.008 C 
ATOM     17  C17 LIG d          85.375 167.304  75.260  0.00  0.00    -0.048 C 
ATOM     18  C14 LIG d          84.773 166.516  74.353  0.00  0.00    -0.107 C 
ATOM     19  C18 LIG d          85.006 164.984  74.296  0.00  0.00    -0.043 C 
ATOM     20  C20 LIG d          83.646 164.237  74.197  0.00  0.00     0.219 C 
ATOM     21  C23 LIG d          85.869 164.661  73.052  0.00  0.00     0.031 C 
ATOM     22  C24 LIG d          85.778 164.414  75.516  0.00  0.00     0.031 C 
ATOM     23  C19 LIG d          82.726 164.806  73.120  0.00  0.00    -0.007 C 
ATOM     24  C16 LIG d          82.512 166.305  73.317  0.00  0.00     0.033 C 
BRANCH  13  25
ATOM     25  C13 LIG d          86.697 171.982  69.901  0.00  0.00    -0.009 C 
ATOM     26  C22 LIG d          86.595 171.335  68.518  0.00  0.00     0.011 C 
BRANCH  25  27
ATOM     27  C21 LIG d          87.911 172.930  70.010  0.00  0.00     0.008 C 
BRANCH  27  28
ATOM     28  C25 LIG d          88.906 172.869  68.842  0.00  0.00     0.050 C 
BRANCH  28  29
ATOM     29  C26 LIG d          89.541 174.201  68.552  0.00  0.00    -0.054 C 
ATOM     30  C27 LIG d          90.683 174.711  69.055  0.00  0.00    -0.124 C 
ATOM     31  C28 LIG d          91.158 176.074  68.626  0.00  0.00     0.064 C 
ATOM     32  C29 LIG d          91.581 174.031  70.049  0.00  0.00     0.064 C 
ENDBRANCH  28  29
ENDBRANCH  27  28
ENDBRANCH  25  27
ENDBRANCH  13  25
BRANCH  20  33
ATOM     33  O1  LIG d          82.971 164.300  75.458  0.00  0.00    -0.599 OA
ATOM     34  H42 LIG d          83.428 163.698  76.067  0.00  0.00     0.401 HD
ENDBRANCH  20  33
ENDBRANCH   1   3
TORSDOF 6
ENDMDL
MODEL 2
REMARK VINA RESULT:     -11.0      1.440      2.094
REMARK  6 active torsions:
REMARK  status: ('A' for Active; 'I' for Inactive)
REMARK    1  A    between atoms: O_1  and  C7_10 
REMARK    2  A    between atoms: O1_2  and  C20_23 
REMARK    3  A    between atoms: C4_7  and  C13_16 
REMARK    4  A    between atoms: C13_16  and  C21_24 
REMARK    5  A    between atoms: C21_24  and  C25_28 
REMARK    6  A    between atoms: C25_28  and  C26_29 
ROOT
ATOM      1  O   LIG d          82.678 168.577  71.331  0.00  0.00    -0.605 OA
ATOM      2  H28 LIG d          81.795 168.979  71.402  0.00  0.00     0.398 HD
ENDROOT
BRANCH   1   3
ATOM      3  C7  LIG d          83.583 169.372  72.095  0.00  0.00     0.176 C 
ATOM      4  C3  LIG d          83.949 168.683  73.479  0.00  0.00    -0.013 C 
ATOM      5  C2  LIG d          85.248 169.338  74.118  0.00  0.00     0.007 C 
ATOM      6  C8  LIG d          84.079 167.098  73.330  0.00  0.00     0.060 C 
ATOM      7  C15 LIG d          82.770 169.015  74.448  0.00  0.00     0.021 C 
ATOM      8  C   LIG d          86.391 169.636  73.091  0.00  0.00    -0.039 C 
ATOM      9  C10 LIG d          85.698 168.584  75.381  0.00  0.00     0.055 C 
ATOM     10  C1  LIG d          85.824 170.548  71.944  0.00  0.00    -0.036 C 
ATOM     11  C6  LIG d          87.551 170.524  73.594  0.00  0.00     0.010 C 
ATOM     12  C11 LIG d          87.073 168.324  72.592  0.00  0.00     0.027 C 
ATOM     13  C4  LIG d          87.119 170.902  71.171  0.00  0.00    -0.003 C 
ATOM     14  C5  LIG d          84.766 169.752  71.179  0.00  0.00    -0.002 C 
ATOM     15  C12 LIG d          85.169 171.886  72.430  0.00  0.00     0.019 C 
ATOM     16  C9  LIG d          88.141 171.161  72.310  0.00  0.00     0.008 C 
ATOM     17  C17 LIG d          85.682 167.097  75.265  0.00  0.00    -0.048 C 
ATOM     18  C14 LIG d          85.015 166.398  74.331  0.00  0.00    -0.107 C 
ATOM     19  C18 LIG d          85.174 164.864  74.168  0.00  0.00    -0.043 C 
ATOM     20  C20 LIG d          83.779 164.187  74.069  0.00  0.00     0.219 C 
ATOM     21  C23 LIG d          85.981 164.586  72.876  0.00  0.00     0.031 C 
ATOM     22  C24 LIG d          85.958 164.182  75.321  0.00  0.00     0.031 C 
ATOM     23  C19 LIG d          82.852 164.865  73.064  0.00  0.00    -0.007 C 
ATOM     24  C16 LIG d          82.715 166.356  73.364  0.00  0.00     0.033 C 
BRANCH  13  25
ATOM     25  C13 LIG d          87.049 172.054  70.174  0.00  0.00    -0.009 C 
ATOM     26  C22 LIG d          86.985 171.503  68.747  0.00  0.00     0.011 C 
BRANCH  25  27
ATOM     27  C21 LIG d          88.251 173.001  70.378  0.00  0.00     0.008 C 
BRANCH  27  28
ATOM     28  C25 LIG d          87.916 174.500  70.405  0.00  0.00     0.050 C 
BRANCH  28  29
ATOM     29  C26 LIG d          86.446 174.762  70.579  0.00  0.00    -0.054 C 
ATOM     30  C27 LIG d          85.812 175.949  70.655  0.00  0.00    -0.124 C 
ATOM     31  C28 LIG d          84.316 175.999  70.823  0.00  0.00     0.064 C 
ATOM     32  C29 LIG d          86.469 177.298  70.587  0.00  0.00     0.064 C 
ENDBRANCH  28  29
ENDBRANCH  27  28
ENDBRANCH  25  27
ENDBRANCH  13  25
BRANCH  20  33
ATOM     33  O1  LIG d          83.148 164.197  75.354  0.00  0.00    -0.599 OA
ATOM     34  H42 LIG d          82.726 165.065  75.467  0.00  0.00     0.401 HD
ENDBRANCH  20  33
ENDBRANCH   1   3
TORSDOF 6
ENDMDL
MODEL 3
REMARK VINA RESULT:     -10.9      1.220      1.369
REMARK  6 active torsions:
REMARK  status: ('A' for Active; 'I' for Inactive)
REMARK    1  A    between atoms: O_1  and  C7_10 
REMARK    2  A    between atoms: O1_2  and  C20_23 
REMARK    3  A    between atoms: C4_7  and  C13_16 
REMARK    4  A    between atoms: C13_16  and  C21_24 
REMARK    5  A    between atoms: C21_24  and  C25_28 
REMARK    6  A    between atoms: C25_28  and  C26_29 
ROOT
ATOM      1  O   LIG d          82.550 168.472  71.212  0.00  0.00    -0.605 OA
ATOM      2  H28 LIG d          83.016 168.207  70.400  0.00  0.00     0.398 HD
ENDROOT
BRANCH   1   3
ATOM      3  C7  LIG d          83.414 169.334  71.950  0.00  0.00     0.176 C 
ATOM      4  C3  LIG d          83.790 168.718  73.366  0.00  0.00    -0.013 C 
ATOM      5  C2  LIG d          85.055 169.449  73.991  0.00  0.00     0.007 C 
ATOM      6  C8  LIG d          83.982 167.134  73.287  0.00  0.00     0.060 C 
ATOM      7  C15 LIG d          82.587 169.044  74.308  0.00  0.00     0.021 C 
ATOM      8  C   LIG d          86.198 169.747  72.964  0.00  0.00    -0.039 C 
ATOM      9  C10 LIG d          85.517 168.767  75.289  0.00  0.00     0.055 C 
ATOM     10  C1  LIG d          85.611 170.588  71.773  0.00  0.00    -0.036 C 
ATOM     11  C6  LIG d          87.317 170.700  73.441  0.00  0.00     0.010 C 
ATOM     12  C11 LIG d          86.936 168.443  72.529  0.00  0.00     0.027 C 
ATOM     13  C4  LIG d          86.901 170.959  71.000  0.00  0.00    -0.003 C 
ATOM     14  C5  LIG d          84.593 169.720  71.031  0.00  0.00    -0.002 C 
ATOM     15  C12 LIG d          84.900 171.918  72.195  0.00  0.00     0.019 C 
ATOM     16  C9  LIG d          87.898 171.305  72.138  0.00  0.00     0.008 C 
ATOM     17  C17 LIG d          85.560 167.277  75.237  0.00  0.00    -0.048 C 
ATOM     18  C14 LIG d          84.932 166.514  74.326  0.00  0.00    -0.107 C 
ATOM     19  C18 LIG d          85.151 164.982  74.230  0.00  0.00    -0.043 C 
ATOM     20  C20 LIG d          83.785 164.247  74.146  0.00  0.00     0.219 C 
ATOM     21  C23 LIG d          85.984 164.680  72.961  0.00  0.00     0.031 C 
ATOM     22  C24 LIG d          85.946 164.380  75.420  0.00  0.00     0.031 C 
ATOM     23  C19 LIG d          82.844 164.847  73.102  0.00  0.00    -0.007 C 
ATOM     24  C16 LIG d          82.646 166.343  73.338  0.00  0.00     0.033 C 
BRANCH  13  25
ATOM     25  C13 LIG d          86.799 172.064  69.954  0.00  0.00    -0.009 C 
ATOM     26  C22 LIG d          86.982 171.472  68.554  0.00  0.00     0.011 C 
BRANCH  25  27
ATOM     27  C21 LIG d          87.831 173.171  70.256  0.00  0.00     0.008 C 
BRANCH  27  28
ATOM     28  C25 LIG d          87.280 174.605  70.267  0.00  0.00     0.050 C 
BRANCH  28  29
ATOM     29  C26 LIG d          88.291 175.618  69.805  0.00  0.00    -0.054 C 
ATOM     30  C27 LIG d          88.491 176.869  70.264  0.00  0.00    -0.124 C 
ATOM     31  C28 LIG d          89.572 177.731  69.667  0.00  0.00     0.064 C 
ATOM     32  C29 LIG d          87.712 177.532  71.364  0.00  0.00     0.064 C 
ENDBRANCH  28  29
ENDBRANCH  27  28
ENDBRANCH  25  27
ENDBRANCH  13  25
BRANCH  20  33
ATOM     33  O1  LIG d          83.137 164.287  75.422  0.00  0.00    -0.599 OA
ATOM     34  H42 LIG d          83.513 165.034  75.919  0.00  0.00     0.401 HD
ENDBRANCH  20  33
ENDBRANCH   1   3
TORSDOF 6
ENDMDL
MODEL 4
REMARK VINA RESULT:      -9.9      1.979      2.513
REMARK  6 active torsions:
REMARK  status: ('A' for Active; 'I' for Inactive)
REMARK    1  A    between atoms: O_1  and  C7_10 
REMARK    2  A    between atoms: O1_2  and  C20_23 
REMARK    3  A    between atoms: C4_7  and  C13_16 
REMARK    4  A    between atoms: C13_16  and  C21_24 
REMARK    5  A    between atoms: C21_24  and  C25_28 
REMARK    6  A    between atoms: C25_28  and  C26_29 
ROOT
ATOM      1  O   LIG d          83.381 169.170  74.087  0.00  0.00    -0.605 OA
ATOM      2  H28 LIG d          82.627 169.781  74.031  0.00  0.00     0.398 HD
ENDROOT
BRANCH   1   3
ATOM      3  C7  LIG d          84.576 169.937  73.959  0.00  0.00     0.176 C 
ATOM      4  C3  LIG d          85.683 169.482  75.006  0.00  0.00    -0.013 C 
ATOM      5  C2  LIG d          87.118 170.024  74.592  0.00  0.00     0.007 C 
ATOM      6  C8  LIG d          85.671 167.900  75.224  0.00  0.00     0.060 C 
ATOM      7  C15 LIG d          85.319 170.191  76.350  0.00  0.00     0.021 C 
ATOM      8  C   LIG d          87.430 169.918  73.062  0.00  0.00    -0.039 C 
ATOM      9  C10 LIG d          88.218 169.468  75.513  0.00  0.00     0.055 C 
ATOM     10  C1  LIG d          86.308 170.668  72.257  0.00  0.00    -0.036 C 
ATOM     11  C6  LIG d          88.677 170.681  72.561  0.00  0.00     0.010 C 
ATOM     12  C11 LIG d          87.657 168.438  72.621  0.00  0.00     0.027 C 
ATOM     13  C4  LIG d          86.894 170.641  70.823  0.00  0.00    -0.003 C 
ATOM     14  C5  LIG d          84.988 169.926  72.472  0.00  0.00    -0.002 C 
ATOM     15  C12 LIG d          86.095 172.166  72.665  0.00  0.00     0.019 C 
ATOM     16  C9  LIG d          88.398 170.945  71.060  0.00  0.00     0.008 C 
ATOM     17  C17 LIG d          88.110 168.012  75.815  0.00  0.00    -0.048 C 
ATOM     18  C14 LIG d          87.006 167.264  75.649  0.00  0.00    -0.107 C 
ATOM     19  C18 LIG d          87.009 165.724  75.826  0.00  0.00    -0.043 C 
ATOM     20  C20 LIG d          85.818 165.283  76.722  0.00  0.00     0.219 C 
ATOM     21  C23 LIG d          86.883 165.065  74.431  0.00  0.00     0.031 C 
ATOM     22  C24 LIG d          88.313 165.160  76.452  0.00  0.00     0.031 C 
ATOM     23  C19 LIG d          84.486 165.896  76.294  0.00  0.00    -0.007 C 
ATOM     24  C16 LIG d          84.581 167.419  76.222  0.00  0.00     0.033 C 
BRANCH  13  25
ATOM     25  C13 LIG d          86.264 171.569  69.791  0.00  0.00    -0.009 C 
ATOM     26  C22 LIG d          84.793 171.198  69.588  0.00  0.00     0.011 C 
BRANCH  25  27
ATOM     27  C21 LIG d          87.065 171.511  68.472  0.00  0.00     0.008 C 
BRANCH  27  28
ATOM     28  C25 LIG d          88.075 172.648  68.258  0.00  0.00     0.050 C 
BRANCH  28  29
ATOM     29  C26 LIG d          87.780 173.852  69.109  0.00  0.00    -0.054 C 
ATOM     30  C27 LIG d          88.612 174.518  69.933  0.00  0.00    -0.124 C 
ATOM     31  C28 LIG d          88.121 175.718  70.700  0.00  0.00     0.064 C 
ATOM     32  C29 LIG d          90.054 174.176  70.183  0.00  0.00     0.064 C 
ENDBRANCH  28  29
ENDBRANCH  27  28
ENDBRANCH  25  27
ENDBRANCH  13  25
BRANCH  20  33
ATOM     33  O1  LIG d          86.076 165.652  78.081  0.00  0.00    -0.599 OA
ATOM     34  H42 LIG d          85.823 166.584  78.185  0.00  0.00     0.401 HD
ENDBRANCH  20  33
ENDBRANCH   1   3
TORSDOF 6
ENDMDL
MODEL 5
REMARK VINA RESULT:      -9.4      2.488      7.988
REMARK  6 active torsions:
REMARK  status: ('A' for Active; 'I' for Inactive)
REMARK    1  A    between atoms: O_1  and  C7_10 
REMARK    2  A    between atoms: O1_2  and  C20_23 
REMARK    3  A    between atoms: C4_7  and  C13_16 
REMARK    4  A    between atoms: C13_16  and  C21_24 
REMARK    5  A    between atoms: C21_24  and  C25_28 
REMARK    6  A    between atoms: C25_28  and  C26_29 
ROOT
ATOM      1  O   LIG d          88.000 168.254  72.887  0.00  0.00    -0.605 OA
ATOM      2  H28 LIG d          87.871 167.567  72.211  0.00  0.00     0.398 HD
ENDROOT
BRANCH   1   3
ATOM      3  C7  LIG d          86.823 168.303  73.691  0.00  0.00     0.176 C 
ATOM      4  C3  LIG d          86.223 169.773  73.768  0.00  0.00    -0.013 C 
ATOM      5  C2  LIG d          84.722 169.752  74.289  0.00  0.00     0.007 C 
ATOM      6  C8  LIG d          86.372 170.542  72.376  0.00  0.00     0.060 C 
ATOM      7  C15 LIG d          87.055 170.519  74.861  0.00  0.00     0.021 C 
ATOM      8  C   LIG d          83.847 168.604  73.683  0.00  0.00    -0.039 C 
ATOM      9  C10 LIG d          84.083 171.149  74.227  0.00  0.00     0.055 C 
ATOM     10  C1  LIG d          84.545 167.224  73.965  0.00  0.00    -0.036 C 
ATOM     11  C6  LIG d          82.478 168.356  74.357  0.00  0.00     0.010 C 
ATOM     12  C11 LIG d          83.517 168.863  72.181  0.00  0.00     0.027 C 
ATOM     13  C4  LIG d          83.451 166.231  73.498  0.00  0.00    -0.003 C 
ATOM     14  C5  LIG d          85.869 167.194  73.200  0.00  0.00    -0.002 C 
ATOM     15  C12 LIG d          84.848 166.936  75.474  0.00  0.00     0.019 C 
ATOM     16  C9  LIG d          82.146 166.877  74.037  0.00  0.00     0.008 C 
ATOM     17  C17 LIG d          84.348 171.908  72.971  0.00  0.00    -0.048 C 
ATOM     18  C14 LIG d          85.327 171.635  72.091  0.00  0.00    -0.107 C 
ATOM     19  C18 LIG d          85.444 172.360  70.725  0.00  0.00    -0.043 C 
ATOM     20  C20 LIG d          86.903 172.844  70.497  0.00  0.00     0.219 C 
ATOM     21  C23 LIG d          85.043 171.370  69.604  0.00  0.00     0.031 C 
ATOM     22  C24 LIG d          84.503 173.585  70.575  0.00  0.00     0.031 C 
ATOM     23  C19 LIG d          87.944 171.759  70.761  0.00  0.00    -0.007 C 
ATOM     24  C16 LIG d          87.777 171.167  72.159  0.00  0.00     0.033 C 
BRANCH  13  25
ATOM     25  C13 LIG d          83.602 164.774  73.920  0.00  0.00    -0.009 C 
ATOM     26  C22 LIG d          83.195 164.613  75.388  0.00  0.00     0.011 C 
BRANCH  25  27
ATOM     27  C21 LIG d          85.047 164.297  73.664  0.00  0.00     0.008 C 
BRANCH  27  28
ATOM     28  C25 LIG d          85.698 163.506  74.808  0.00  0.00     0.050 C 
BRANCH  28  29
ATOM     29  C26 LIG d          86.998 164.108  75.263  0.00  0.00    -0.054 C 
ATOM     30  C27 LIG d          87.236 164.853  76.360  0.00  0.00    -0.124 C 
ATOM     31  C28 LIG d          88.625 165.360  76.645  0.00  0.00     0.064 C 
ATOM     32  C29 LIG d          86.213 165.253  77.385  0.00  0.00     0.064 C 
ENDBRANCH  28  29
ENDBRANCH  27  28
ENDBRANCH  25  27
ENDBRANCH  13  25
BRANCH  20  33
ATOM     33  O1  LIG d          87.178 173.960  71.351  0.00  0.00    -0.599 OA
ATOM     34  H42 LIG d          87.556 173.612  72.176  0.00  0.00     0.401 HD
ENDBRANCH  20  33
ENDBRANCH   1   3
TORSDOF 6
ENDMDL
MODEL 6
REMARK VINA RESULT:      -9.3      2.643      8.640
REMARK  6 active torsions:
REMARK  status: ('A' for Active; 'I' for Inactive)
REMARK    1  A    between atoms: O_1  and  C7_10 
REMARK    2  A    between atoms: O1_2  and  C20_23 
REMARK    3  A    between atoms: C4_7  and  C13_16 
REMARK    4  A    between atoms: C13_16  and  C21_24 
REMARK    5  A    between atoms: C21_24  and  C25_28 
REMARK    6  A    between atoms: C25_28  and  C26_29 
ROOT
ATOM      1  O   LIG d          84.995 174.046  73.573  0.00  0.00    -0.605 OA
ATOM      2  H28 LIG d          84.765 174.102  74.516  0.00  0.00     0.398 HD
ENDROOT
BRANCH   1   3
ATOM      3  C7  LIG d          84.623 172.749  73.109  0.00  0.00     0.176 C 
ATOM      4  C3  LIG d          85.026 172.531  71.587  0.00  0.00    -0.013 C 
ATOM      5  C2  LIG d          85.004 170.989  71.206  0.00  0.00     0.007 C 
ATOM      6  C8  LIG d          86.425 173.221  71.244  0.00  0.00     0.060 C 
ATOM      7  C15 LIG d          83.897 173.206  70.744  0.00  0.00     0.021 C 
ATOM      8  C   LIG d          85.615 170.047  72.297  0.00  0.00    -0.039 C 
ATOM      9  C10 LIG d          85.534 170.752  69.781  0.00  0.00     0.055 C 
ATOM     10  C1  LIG d          84.866 170.286  73.657  0.00  0.00    -0.036 C 
ATOM     11  C6  LIG d          85.366 168.533  72.114  0.00  0.00     0.010 C 
ATOM     12  C11 LIG d          87.166 170.194  72.382  0.00  0.00     0.027 C 
ATOM     13  C4  LIG d          85.446 169.142  74.527  0.00  0.00    -0.003 C 
ATOM     14  C5  LIG d          85.160 171.714  74.120  0.00  0.00    -0.002 C 
ATOM     15  C12 LIG d          83.312 170.105  73.594  0.00  0.00     0.019 C 
ATOM     16  C9  LIG d          85.477 167.942  73.542  0.00  0.00     0.008 C 
ATOM     17  C17 LIG d          86.768 171.513  69.434  0.00  0.00    -0.048 C 
ATOM     18  C14 LIG d          87.229 172.589  70.095  0.00  0.00    -0.107 C 
ATOM     19  C18 LIG d          88.605 173.232  69.782  0.00  0.00    -0.043 C 
ATOM     20  C20 LIG d          88.458 174.773  69.640  0.00  0.00     0.219 C 
ATOM     21  C23 LIG d          89.578 172.906  70.940  0.00  0.00     0.031 C 
ATOM     22  C24 LIG d          89.277 172.694  68.490  0.00  0.00     0.031 C 
ATOM     23  C19 LIG d          87.676 175.409  70.787  0.00  0.00    -0.007 C 
ATOM     24  C16 LIG d          86.312 174.744  70.957  0.00  0.00     0.033 C 
BRANCH  13  25
ATOM     25  C13 LIG d          84.722 168.814  75.828  0.00  0.00    -0.009 C 
ATOM     26  C22 LIG d          85.325 169.626  76.977  0.00  0.00     0.011 C 
BRANCH  25  27
ATOM     27  C21 LIG d          84.783 167.295  76.096  0.00  0.00     0.008 C 
BRANCH  27  28
ATOM     28  C25 LIG d          83.424 166.589  76.221  0.00  0.00     0.050 C 
BRANCH  28  29
ATOM     29  C26 LIG d          83.446 165.191  75.667  0.00  0.00    -0.054 C 
ATOM     30  C27 LIG d          83.096 164.774  74.435  0.00  0.00    -0.124 C 
ATOM     31  C28 LIG d          83.198 163.316  74.070  0.00  0.00     0.064 C 
ATOM     32  C29 LIG d          82.589 165.651  73.326  0.00  0.00     0.064 C 
ENDBRANCH  28  29
ENDBRANCH  27  28
ENDBRANCH  25  27
ENDBRANCH  13  25
BRANCH  20  33
ATOM     33  O1  LIG d          87.796 175.082  68.409  0.00  0.00    -0.599 OA
ATOM     34  H42 LIG d          88.105 175.957  68.121  0.00  0.00     0.401 HD
ENDBRANCH  20  33
ENDBRANCH   1   3
TORSDOF 6
ENDMDL
MODEL 7
REMARK VINA RESULT:      -9.2      2.211      3.836
REMARK  6 active torsions:
REMARK  status: ('A' for Active; 'I' for Inactive)
REMARK    1  A    between atoms: O_1  and  C7_10 
REMARK    2  A    between atoms: O1_2  and  C20_23 
REMARK    3  A    between atoms: C4_7  and  C13_16 
REMARK    4  A    between atoms: C13_16  and  C21_24 
REMARK    5  A    between atoms: C21_24  and  C25_28 
REMARK    6  A    between atoms: C25_28  and  C26_29 
ROOT
ATOM      1  O   LIG d          87.287 169.526  76.428  0.00  0.00    -0.605 OA
ATOM      2  H28 LIG d          87.372 170.391  76.865  0.00  0.00     0.398 HD
ENDROOT
BRANCH   1   3
ATOM      3  C7  LIG d          87.360 169.738  75.020  0.00  0.00     0.176 C 
ATOM      4  C3  LIG d          87.469 168.367  74.223  0.00  0.00    -0.013 C 
ATOM      5  C2  LIG d          87.126 168.571  72.685  0.00  0.00     0.007 C 
ATOM      6  C8  LIG d          86.581 167.224  74.897  0.00  0.00     0.060 C 
ATOM      7  C15 LIG d          88.975 167.954  74.285  0.00  0.00     0.021 C 
ATOM      8  C   LIG d          85.904 169.511  72.417  0.00  0.00    -0.039 C 
ATOM      9  C10 LIG d          87.084 167.229  71.934  0.00  0.00     0.055 C 
ATOM     10  C1  LIG d          86.162 170.897  73.109  0.00  0.00    -0.036 C 
ATOM     11  C6  LIG d          85.700 169.973  70.956  0.00  0.00     0.010 C 
ATOM     12  C11 LIG d          84.557 168.833  72.818  0.00  0.00     0.027 C 
ATOM     13  C4  LIG d          84.980 171.735  72.561  0.00  0.00    -0.003 C 
ATOM     14  C5  LIG d          86.201 170.677  74.623  0.00  0.00    -0.002 C 
ATOM     15  C12 LIG d          87.494 171.606  72.687  0.00  0.00     0.019 C 
ATOM     16  C9  LIG d          84.912 171.301  71.072  0.00  0.00     0.008 C 
ATOM     17  C17 LIG d          86.364 166.133  72.644  0.00  0.00    -0.048 C 
ATOM     18  C14 LIG d          86.073 166.117  73.956  0.00  0.00    -0.107 C 
ATOM     19  C18 LIG d          85.180 165.024  74.598  0.00  0.00    -0.043 C 
ATOM     20  C20 LIG d          85.854 164.464  75.880  0.00  0.00     0.219 C 
ATOM     21  C23 LIG d          83.812 165.653  74.960  0.00  0.00     0.031 C 
ATOM     22  C24 LIG d          84.868 163.828  73.658  0.00  0.00     0.031 C 
ATOM     23  C19 LIG d          86.343 165.557  76.828  0.00  0.00    -0.007 C 
ATOM     24  C16 LIG d          87.270 166.533  76.106  0.00  0.00     0.033 C 
BRANCH  13  25
ATOM     25  C13 LIG d          85.055 173.249  72.727  0.00  0.00    -0.009 C 
ATOM     26  C22 LIG d          84.186 173.685  73.910  0.00  0.00     0.011 C 
BRANCH  25  27
ATOM     27  C21 LIG d          84.640 173.945  71.414  0.00  0.00     0.008 C 
BRANCH  27  28
ATOM     28  C25 LIG d          85.571 175.070  70.937  0.00  0.00     0.050 C 
BRANCH  28  29
ATOM     29  C26 LIG d          86.925 174.566  70.522  0.00  0.00    -0.054 C 
ATOM     30  C27 LIG d          88.100 175.224  70.528  0.00  0.00    -0.124 C 
ATOM     31  C28 LIG d          89.360 174.532  70.077  0.00  0.00     0.064 C 
ATOM     32  C29 LIG d          88.302 176.649  70.959  0.00  0.00     0.064 C 
ENDBRANCH  28  29
ENDBRANCH  27  28
ENDBRANCH  25  27
ENDBRANCH  13  25
BRANCH  20  33
ATOM     33  O1  LIG d          86.966 163.639  75.518  0.00  0.00    -0.599 OA
ATOM     34  H42 LIG d          87.437 163.405  76.336  0.00  0.00     0.401 HD
ENDBRANCH  20  33
ENDBRANCH   1   3
TORSDOF 6
ENDMDL
MODEL 8
REMARK VINA RESULT:      -9.1      2.888      4.263
REMARK  6 active torsions:
REMARK  status: ('A' for Active; 'I' for Inactive)
REMARK    1  A    between atoms: O_1  and  C7_10 
REMARK    2  A    between atoms: O1_2  and  C20_23 
REMARK    3  A    between atoms: C4_7  and  C13_16 
REMARK    4  A    between atoms: C13_16  and  C21_24 
REMARK    5  A    between atoms: C21_24  and  C25_28 
REMARK    6  A    between atoms: C25_28  and  C26_29 
ROOT
ATOM      1  O   LIG d          87.105 169.615  76.414  0.00  0.00    -0.605 OA
ATOM      2  H28 LIG d          87.978 169.507  76.827  0.00  0.00     0.398 HD
ENDROOT
BRANCH   1   3
ATOM      3  C7  LIG d          87.304 169.800  75.013  0.00  0.00     0.176 C 
ATOM      4  C3  LIG d          87.483 168.414  74.256  0.00  0.00    -0.013 C 
ATOM      5  C2  LIG d          87.279 168.588  72.690  0.00  0.00     0.007 C 
ATOM      6  C8  LIG d          86.536 167.283  74.869  0.00  0.00     0.060 C 
ATOM      7  C15 LIG d          88.976 168.003  74.460  0.00  0.00     0.021 C 
ATOM      8  C   LIG d          86.086 169.522  72.295  0.00  0.00    -0.039 C 
ATOM      9  C10 LIG d          87.302 167.232  71.964  0.00  0.00     0.055 C 
ATOM     10  C1  LIG d          86.283 170.922  72.982  0.00  0.00    -0.036 C 
ATOM     11  C6  LIG d          86.015 169.956  70.814  0.00  0.00     0.010 C 
ATOM     12  C11 LIG d          84.708 168.851  72.587  0.00  0.00     0.027 C 
ATOM     13  C4  LIG d          85.155 171.748  72.314  0.00  0.00    -0.003 C 
ATOM     14  C5  LIG d          86.186 170.730  74.496  0.00  0.00    -0.002 C 
ATOM     15  C12 LIG d          87.648 171.623  72.667  0.00  0.00     0.019 C 
ATOM     16  C9  LIG d          85.220 171.286  70.833  0.00  0.00     0.008 C 
ATOM     17  C17 LIG d          86.521 166.149  72.627  0.00  0.00    -0.048 C 
ATOM     18  C14 LIG d          86.114 166.158  73.908  0.00  0.00    -0.107 C 
ATOM     19  C18 LIG d          85.165 165.077  74.488  0.00  0.00    -0.043 C 
ATOM     20  C20 LIG d          85.721 164.542  75.836  0.00  0.00     0.219 C 
ATOM     21  C23 LIG d          83.772 165.712  74.714  0.00  0.00     0.031 C 
ATOM     22  C24 LIG d          84.938 163.863  73.547  0.00  0.00     0.031 C 
ATOM     23  C19 LIG d          86.125 165.653  76.803  0.00  0.00    -0.007 C 
ATOM     24  C16 LIG d          87.114 166.616  76.148  0.00  0.00     0.033 C 
BRANCH  13  25
ATOM     25  C13 LIG d          85.217 173.264  72.457  0.00  0.00    -0.009 C 
ATOM     26  C22 LIG d          84.290 173.717  73.589  0.00  0.00     0.011 C 
BRANCH  25  27
ATOM     27  C21 LIG d          84.864 173.936  71.113  0.00  0.00     0.008 C 
BRANCH  27  28
ATOM     28  C25 LIG d          84.447 175.412  71.199  0.00  0.00     0.050 C 
BRANCH  28  29
ATOM     29  C26 LIG d          85.620 176.349  71.136  0.00  0.00    -0.054 C 
ATOM     30  C27 LIG d          85.903 177.391  71.944  0.00  0.00    -0.124 C 
ATOM     31  C28 LIG d          87.146 178.210  71.717  0.00  0.00     0.064 C 
ATOM     32  C29 LIG d          85.069 177.846  73.108  0.00  0.00     0.064 C 
ENDBRANCH  28  29
ENDBRANCH  27  28
ENDBRANCH  25  27
ENDBRANCH  13  25
BRANCH  20  33
ATOM     33  O1  LIG d          86.861 163.711  75.591  0.00  0.00    -0.599 OA
ATOM     34  H42 LIG d          87.442 164.185  74.972  0.00  0.00     0.401 HD
ENDBRANCH  20  33
ENDBRANCH   1   3
TORSDOF 6
ENDMDL
MODEL 9
REMARK VINA RESULT:      -9.0      2.830      8.415
REMARK  6 active torsions:
REMARK  status: ('A' for Active; 'I' for Inactive)
REMARK    1  A    between atoms: O_1  and  C7_10 
REMARK    2  A    between atoms: O1_2  and  C20_23 
REMARK    3  A    between atoms: C4_7  and  C13_16 
REMARK    4  A    between atoms: C13_16  and  C21_24 
REMARK    5  A    between atoms: C21_24  and  C25_28 
REMARK    6  A    between atoms: C25_28  and  C26_29 
ROOT
ATOM      1  O   LIG d          85.055 174.214  73.540  0.00  0.00    -0.605 OA
ATOM      2  H28 LIG d          85.547 174.637  72.816  0.00  0.00     0.398 HD
ENDROOT
BRANCH   1   3
ATOM      3  C7  LIG d          84.609 172.939  73.079  0.00  0.00     0.176 C 
ATOM      4  C3  LIG d          84.993 172.697  71.556  0.00  0.00    -0.013 C 
ATOM      5  C2  LIG d          84.883 171.158  71.177  0.00  0.00     0.007 C 
ATOM      6  C8  LIG d          86.427 173.307  71.207  0.00  0.00     0.060 C 
ATOM      7  C15 LIG d          83.901 173.433  70.716  0.00  0.00     0.021 C 
ATOM      8  C   LIG d          85.445 170.184  72.268  0.00  0.00    -0.039 C 
ATOM      9  C10 LIG d          85.394 170.889  69.751  0.00  0.00     0.055 C 
ATOM     10  C1  LIG d          84.716 170.467  73.631  0.00  0.00    -0.036 C 
ATOM     11  C6  LIG d          85.110 168.686  72.089  0.00  0.00     0.010 C 
ATOM     12  C11 LIG d          87.002 170.244  72.347  0.00  0.00     0.027 C 
ATOM     13  C4  LIG d          85.233 169.294  74.500  0.00  0.00    -0.003 C 
ATOM     14  C5  LIG d          85.090 171.877  74.090  0.00  0.00    -0.002 C 
ATOM     15  C12 LIG d          83.153 170.374  73.573  0.00  0.00     0.019 C 
ATOM     16  C9  LIG d          85.194 168.092  73.517  0.00  0.00     0.008 C 
ATOM     17  C17 LIG d          86.667 171.579  69.398  0.00  0.00    -0.048 C 
ATOM     18  C14 LIG d          87.190 172.629  70.056  0.00  0.00    -0.107 C 
ATOM     19  C18 LIG d          88.599 173.194  69.737  0.00  0.00    -0.043 C 
ATOM     20  C20 LIG d          88.538 174.740  69.593  0.00  0.00     0.219 C 
ATOM     21  C23 LIG d          89.557 172.815  70.893  0.00  0.00     0.031 C 
ATOM     22  C24 LIG d          89.235 172.617  68.444  0.00  0.00     0.031 C 
ATOM     23  C19 LIG d          87.798 175.421  70.743  0.00  0.00    -0.007 C 
ATOM     24  C16 LIG d          86.399 174.833  70.918  0.00  0.00     0.033 C 
BRANCH  13  25
ATOM     25  C13 LIG d          84.496 169.008  75.804  0.00  0.00    -0.009 C 
ATOM     26  C22 LIG d          85.369 169.418  76.994  0.00  0.00     0.011 C 
BRANCH  25  27
ATOM     27  C21 LIG d          84.093 167.520  75.866  0.00  0.00     0.008 C 
BRANCH  27  28
ATOM     28  C25 LIG d          84.922 166.647  76.820  0.00  0.00     0.050 C 
BRANCH  28  29
ATOM     29  C26 LIG d          85.317 165.333  76.206  0.00  0.00    -0.054 C 
ATOM     30  C27 LIG d          86.497 164.989  75.653  0.00  0.00    -0.124 C 
ATOM     31  C28 LIG d          86.698 163.605  75.095  0.00  0.00     0.064 C 
ATOM     32  C29 LIG d          87.698 165.884  75.527  0.00  0.00     0.064 C 
ENDBRANCH  28  29
ENDBRANCH  27  28
ENDBRANCH  25  27
ENDBRANCH  13  25
BRANCH  20  33
ATOM     33  O1  LIG d          87.890 175.083  68.364  0.00  0.00    -0.599 OA
ATOM     34  H42 LIG d          86.935 175.122  68.536  0.00  0.00     0.401 HD
ENDBRANCH  20  33
ENDBRANCH   1   3
TORSDOF 6
ENDMDL
