MODEL 1
REMARK VINA RESULT:     -10.8      0.000      0.000
REMARK  5 active torsions:
REMARK  status: ('A' for Active; 'I' for Inactive)
REMARK    1  A    between atoms: O1_2  and  C20_23 
REMARK    2  A    between atoms: C4_7  and  C13_16 
REMARK    3  A    between atoms: C13_16  and  C21_24 
REMARK    4  A    between atoms: C21_24  and  C25_28 
REMARK    5  A    between atoms: C25_28  and  C26_29 
ROOT
ATOM      1  O   LIG d          83.832 171.187  74.916  0.00  0.00    -0.544 OA
ATOM      2  C   LIG d          87.397 170.267  72.950  0.00  0.00    -0.045 C 
ATOM      3  C1  LIG d          86.346 171.318  72.440  0.00  0.00    -0.036 C 
ATOM      4  C2  LIG d          87.407 170.285  74.510  0.00  0.00     0.015 C 
ATOM      5  C3  LIG d          85.990 170.068  75.171  0.00  0.00    -0.117 C 
ATOM      6  C4  LIG d          86.652 171.336  70.921  0.00  0.00    -0.001 C 
ATOM      7  C5  LIG d          88.676 170.799  72.263  0.00  0.00     0.013 C 
ATOM      8  C6  LIG d          84.950 170.850  72.842  0.00  0.00    -0.019 C 
ATOM      9  C7  LIG d          88.201 171.296  70.876  0.00  0.00     0.012 C 
ATOM     10  C8  LIG d          85.595 168.542  75.300  0.00  0.00     0.044 C 
ATOM     11  C9  LIG d          84.853 170.767  74.362  0.00  0.00     0.572 C 
ATOM     12  C10 LIG d          88.473 169.389  75.165  0.00  0.00     0.061 C 
ATOM     13  C11 LIG d          87.200 168.825  72.389  0.00  0.00     0.027 C 
ATOM     14  C12 LIG d          86.532 172.766  73.005  0.00  0.00     0.027 C 
ATOM     15  C14 LIG d          86.760 167.566  75.504  0.00  0.00    -0.109 C 
ATOM     16  C15 LIG d          86.050 170.759  76.563  0.00  0.00     0.047 C 
ATOM     17  C16 LIG d          84.514 168.302  76.382  0.00  0.00     0.033 C 
ATOM     18  C17 LIG d          88.034 167.995  75.474  0.00  0.00    -0.037 C 
ATOM     19  C18 LIG d          86.386 166.071  75.671  0.00  0.00    -0.043 C 
ATOM     20  C19 LIG d          84.056 166.847  76.440  0.00  0.00    -0.003 C 
ATOM     21  C20 LIG d          85.232 165.909  76.702  0.00  0.00     0.222 C 
ATOM     22  C23 LIG d          87.571 165.172  76.115  0.00  0.00     0.034 C 
ATOM     23  C24 LIG d          85.930 165.529  74.293  0.00  0.00     0.034 C 
ENDROOT
BRANCH   6  24
ATOM     24  C13 LIG d          86.074 172.484  70.103  0.00  0.00    -0.008 C 
ATOM     25  C22 LIG d          84.594 172.221  69.811  0.00  0.00     0.015 C 
BRANCH  24  26
ATOM     26  C21 LIG d          86.896 172.674  68.809  0.00  0.00     0.008 C 
BRANCH  26  27
ATOM     27  C25 LIG d          87.563 174.047  68.642  0.00  0.00     0.049 C 
BRANCH  27  28
ATOM     28  C26 LIG d          86.975 175.092  69.550  0.00  0.00    -0.055 C 
ATOM     29  C27 LIG d          87.477 175.577  70.701  0.00  0.00    -0.124 C 
ATOM     30  C29 LIG d          86.729 176.638  71.466  0.00  0.00     0.063 C 
ATOM     31  C28 LIG d          88.770 175.157  71.337  0.00  0.00     0.063 C 
ENDBRANCH  27  28
ENDBRANCH  26  27
ENDBRANCH  24  26
ENDBRANCH   6  24
BRANCH  21  32
ATOM     32  O1  LIG d          85.696 166.162  78.031  0.00  0.00    -0.596 OA
ATOM     33  H40 LIG d          86.305 165.444  78.273  0.00  0.00     0.401 HD
ENDBRANCH  21  32
TORSDOF 5
ENDMDL
MODEL 2
REMARK VINA RESULT:     -10.7      1.167      1.541
REMARK  5 active torsions:
REMARK  status: ('A' for Active; 'I' for Inactive)
REMARK    1  A    between atoms: O1_2  and  C20_23 
REMARK    2  A    between atoms: C4_7  and  C13_16 
REMARK    3  A    between atoms: C13_16  and  C21_24 
REMARK    4  A    between atoms: C21_24  and  C25_28 
REMARK    5  A    between atoms: C25_28  and  C26_29 
ROOT
ATOM      1  O   LIG d          84.032 171.425  74.910  0.00  0.00    -0.544 OA
ATOM      2  C   LIG d          87.608 170.389  73.023  0.00  0.00    -0.045 C 
ATOM      3  C1  LIG d          86.632 171.516  72.523  0.00  0.00    -0.036 C 
ATOM      4  C2  LIG d          87.565 170.346  74.582  0.00  0.00     0.015 C 
ATOM      5  C3  LIG d          86.117 170.181  75.188  0.00  0.00    -0.117 C 
ATOM      6  C4  LIG d          86.991 171.576  71.017  0.00  0.00    -0.001 C 
ATOM      7  C5  LIG d          88.935 170.877  72.399  0.00  0.00     0.013 C 
ATOM      8  C6  LIG d          85.200 171.110  72.861  0.00  0.00    -0.019 C 
ATOM      9  C7  LIG d          88.535 171.453  71.019  0.00  0.00     0.012 C 
ATOM     10  C8  LIG d          85.637 168.675  75.242  0.00  0.00     0.044 C 
ATOM     11  C9  LIG d          85.047 170.972  74.372  0.00  0.00     0.572 C 
ATOM     12  C10 LIG d          88.559 169.367  75.233  0.00  0.00     0.061 C 
ATOM     13  C11 LIG d          87.353 168.984  72.397  0.00  0.00     0.027 C 
ATOM     14  C12 LIG d          86.876 172.928  73.152  0.00  0.00     0.027 C 
ATOM     15  C14 LIG d          86.740 167.630  75.443  0.00  0.00    -0.109 C 
ATOM     16  C15 LIG d          86.167 170.813  76.608  0.00  0.00     0.047 C 
ATOM     17  C16 LIG d          84.508 168.452  76.277  0.00  0.00     0.033 C 
ATOM     18  C17 LIG d          88.036 167.989  75.471  0.00  0.00    -0.037 C 
ATOM     19  C18 LIG d          86.282 166.152  75.536  0.00  0.00    -0.043 C 
ATOM     20  C19 LIG d          83.972 167.024  76.262  0.00  0.00    -0.003 C 
ATOM     21  C20 LIG d          85.086 166.013  76.522  0.00  0.00     0.222 C 
ATOM     22  C23 LIG d          87.401 165.173  75.981  0.00  0.00     0.034 C 
ATOM     23  C24 LIG d          85.845 165.690  74.124  0.00  0.00     0.034 C 
ENDROOT
BRANCH   6  24
ATOM     24  C13 LIG d          86.503 172.785  70.228  0.00  0.00    -0.008 C 
ATOM     25  C22 LIG d          85.400 172.361  69.254  0.00  0.00     0.015 C 
BRANCH  24  26
ATOM     26  C21 LIG d          87.691 173.455  69.503  0.00  0.00     0.008 C 
BRANCH  26  27
ATOM     27  C25 LIG d          87.413 174.848  68.922  0.00  0.00     0.049 C 
BRANCH  27  28
ATOM     28  C26 LIG d          88.657 175.685  68.798  0.00  0.00    -0.055 C 
ATOM     29  C27 LIG d          89.381 175.947  67.694  0.00  0.00    -0.124 C 
ATOM     30  C29 LIG d          90.604 176.823  67.781  0.00  0.00     0.063 C 
ATOM     31  C28 LIG d          89.087 175.437  66.313  0.00  0.00     0.063 C 
ENDBRANCH  27  28
ENDBRANCH  26  27
ENDBRANCH  24  26
ENDBRANCH   6  24
BRANCH  21  32
ATOM     32  O1  LIG d          85.517 166.188  77.874  0.00  0.00    -0.596 OA
ATOM     33  H40 LIG d          85.301 165.375  78.361  0.00  0.00     0.401 HD
ENDBRANCH  21  32
TORSDOF 5
ENDMDL
MODEL 3
REMARK VINA RESULT:     -10.7      1.793      2.668
REMARK  5 active torsions:
REMARK  status: ('A' for Active; 'I' for Inactive)
REMARK    1  A    between atoms: O1_2  and  C20_23 
REMARK    2  A    between atoms: C4_7  and  C13_16 
REMARK    3  A    between atoms: C13_16  and  C21_24 
REMARK    4  A    between atoms: C21_24  and  C25_28 
REMARK    5  A    between atoms: C25_28  and  C26_29 
ROOT
ATOM      1  O   LIG d          83.728 171.296  71.805  0.00  0.00    -0.544 OA
ATOM      2  C   LIG d          87.524 170.814  73.472  0.00  0.00    -0.045 C 
ATOM      3  C1  LIG d          87.237 171.534  72.104  0.00  0.00    -0.036 C 
ATOM      4  C2  LIG d          86.330 171.085  74.439  0.00  0.00     0.015 C 
ATOM      5  C3  LIG d          84.918 170.694  73.853  0.00  0.00    -0.117 C 
ATOM      6  C4  LIG d          88.601 171.369  71.387  0.00  0.00    -0.001 C 
ATOM      7  C5  LIG d          88.866 171.477  73.857  0.00  0.00     0.013 C 
ATOM      8  C6  LIG d          86.039 170.864  71.438  0.00  0.00    -0.019 C 
ATOM      9  C7  LIG d          89.626 171.637  72.518  0.00  0.00     0.012 C 
ATOM     10  C8  LIG d          84.575 169.161  74.035  0.00  0.00     0.044 C 
ATOM     11  C9  LIG d          84.808 171.008  72.328  0.00  0.00     0.572 C 
ATOM     12  C10 LIG d          86.514 170.541  75.867  0.00  0.00     0.061 C 
ATOM     13  C11 LIG d          87.838 169.291  73.351  0.00  0.00     0.027 C 
ATOM     14  C12 LIG d          86.914 173.061  72.217  0.00  0.00     0.027 C 
ATOM     15  C14 LIG d          85.169 168.487  75.278  0.00  0.00    -0.109 C 
ATOM     16  C15 LIG d          83.881 171.598  74.580  0.00  0.00     0.047 C 
ATOM     17  C16 LIG d          83.054 168.883  73.964  0.00  0.00     0.033 C 
ATOM     18  C17 LIG d          86.004 169.155  76.094  0.00  0.00    -0.037 C 
ATOM     19  C18 LIG d          84.811 166.995  75.491  0.00  0.00    -0.043 C 
ATOM     20  C19 LIG d          82.725 167.395  74.038  0.00  0.00    -0.003 C 
ATOM     21  C20 LIG d          83.281 166.770  75.315  0.00  0.00     0.222 C 
ATOM     22  C23 LIG d          85.232 166.438  76.877  0.00  0.00     0.034 C 
ATOM     23  C24 LIG d          85.583 166.157  74.441  0.00  0.00     0.034 C 
ENDROOT
BRANCH   6  24
ATOM     24  C13 LIG d          88.854 172.229  70.155  0.00  0.00    -0.008 C 
ATOM     25  C22 LIG d          88.597 171.410  68.886  0.00  0.00     0.015 C 
BRANCH  24  26
ATOM     26  C21 LIG d          90.289 172.799  70.196  0.00  0.00     0.008 C 
BRANCH  26  27
ATOM     27  C25 LIG d          90.414 174.302  69.912  0.00  0.00     0.049 C 
BRANCH  27  28
ATOM     28  C26 LIG d          90.234 174.635  68.456  0.00  0.00    -0.055 C 
ATOM     29  C27 LIG d          89.139 175.114  67.838  0.00  0.00    -0.124 C 
ATOM     30  C29 LIG d          89.164 175.390  66.357  0.00  0.00     0.063 C 
ATOM     31  C28 LIG d          87.825 175.422  68.498  0.00  0.00     0.063 C 
ENDBRANCH  27  28
ENDBRANCH  26  27
ENDBRANCH  24  26
ENDBRANCH   6  24
BRANCH  21  32
ATOM     32  O1  LIG d          82.554 167.322  76.415  0.00  0.00    -0.596 OA
ATOM     33  H40 LIG d          83.056 167.133  77.226  0.00  0.00     0.401 HD
ENDBRANCH  21  32
TORSDOF 5
ENDMDL
MODEL 4
REMARK VINA RESULT:     -10.6      1.631      2.074
REMARK  5 active torsions:
REMARK  status: ('A' for Active; 'I' for Inactive)
REMARK    1  A    between atoms: O1_2  and  C20_23 
REMARK    2  A    between atoms: C4_7  and  C13_16 
REMARK    3  A    between atoms: C13_16  and  C21_24 
REMARK    4  A    between atoms: C21_24  and  C25_28 
REMARK    5  A    between atoms: C25_28  and  C26_29 
ROOT
ATOM      1  O   LIG d          83.885 171.342  74.543  0.00  0.00    -0.544 OA
ATOM      2  C   LIG d          87.720 170.198  73.358  0.00  0.00    -0.045 C 
ATOM      3  C1  LIG d          87.014 171.533  72.921  0.00  0.00    -0.036 C 
ATOM      4  C2  LIG d          87.268 169.846  74.809  0.00  0.00     0.015 C 
ATOM      5  C3  LIG d          85.703 169.775  75.004  0.00  0.00    -0.117 C 
ATOM      6  C4  LIG d          87.758 171.845  71.597  0.00  0.00    -0.001 C 
ATOM      7  C5  LIG d          89.203 170.603  73.194  0.00  0.00     0.013 C 
ATOM      8  C6  LIG d          85.514 171.281  72.809  0.00  0.00    -0.019 C 
ATOM      9  C7  LIG d          89.230 171.499  71.932  0.00  0.00     0.012 C 
ATOM     10  C8  LIG d          85.091 168.377  74.591  0.00  0.00     0.044 C 
ATOM     11  C9  LIG d          84.959 170.864  74.168  0.00  0.00     0.572 C 
ATOM     12  C10 LIG d          87.965 168.621  75.428  0.00  0.00     0.061 C 
ATOM     13  C11 LIG d          87.510 169.002  72.380  0.00  0.00     0.027 C 
ATOM     14  C12 LIG d          87.213 172.737  73.901  0.00  0.00     0.027 C 
ATOM     15  C14 LIG d          86.004 167.162  74.795  0.00  0.00    -0.109 C 
ATOM     16  C15 LIG d          85.438 170.091  76.503  0.00  0.00     0.047 C 
ATOM     17  C16 LIG d          83.716 168.116  75.252  0.00  0.00     0.033 C 
ATOM     18  C17 LIG d          87.275 167.315  75.209  0.00  0.00    -0.037 C 
ATOM     19  C18 LIG d          85.405 165.780  74.431  0.00  0.00    -0.043 C 
ATOM     20  C19 LIG d          83.075 166.815  74.778  0.00  0.00    -0.003 C 
ATOM     21  C20 LIG d          83.986 165.620  75.049  0.00  0.00     0.222 C 
ATOM     22  C23 LIG d          86.276 164.578  74.885  0.00  0.00     0.034 C 
ATOM     23  C24 LIG d          85.312 165.683  72.888  0.00  0.00     0.034 C 
ENDROOT
BRANCH   6  24
ATOM     24  C13 LIG d          87.604 173.247  71.021  0.00  0.00    -0.008 C 
ATOM     25  C22 LIG d          86.657 173.214  69.817  0.00  0.00     0.015 C 
BRANCH  24  26
ATOM     26  C21 LIG d          88.991 173.819  70.651  0.00  0.00     0.008 C 
BRANCH  26  27
ATOM     27  C25 LIG d          89.267 173.971  69.149  0.00  0.00     0.049 C 
BRANCH  27  28
ATOM     28  C26 LIG d          89.774 175.340  68.788  0.00  0.00    -0.055 C 
ATOM     29  C27 LIG d          89.745 175.953  67.589  0.00  0.00    -0.124 C 
ATOM     30  C29 LIG d          90.306 177.342  67.435  0.00  0.00     0.063 C 
ATOM     31  C28 LIG d          89.183 175.372  66.323  0.00  0.00     0.063 C 
ENDBRANCH  27  28
ENDBRANCH  26  27
ENDBRANCH  24  26
ENDBRANCH   6  24
BRANCH  21  32
ATOM     32  O1  LIG d          84.064 165.452  76.468  0.00  0.00    -0.596 OA
ATOM     33  H40 LIG d          83.606 166.204  76.880  0.00  0.00     0.401 HD
ENDBRANCH  21  32
TORSDOF 5
ENDMDL
MODEL 5
REMARK VINA RESULT:     -10.5      1.044      1.441
REMARK  5 active torsions:
REMARK  status: ('A' for Active; 'I' for Inactive)
REMARK    1  A    between atoms: O1_2  and  C20_23 
REMARK    2  A    between atoms: C4_7  and  C13_16 
REMARK    3  A    between atoms: C13_16  and  C21_24 
REMARK    4  A    between atoms: C21_24  and  C25_28 
REMARK    5  A    between atoms: C25_28  and  C26_29 
ROOT
ATOM      1  O   LIG d          83.672 171.250  74.487  0.00  0.00    -0.544 OA
ATOM      2  C   LIG d          87.501 170.262  73.150  0.00  0.00    -0.045 C 
ATOM      3  C1  LIG d          86.682 171.512  72.661  0.00  0.00    -0.036 C 
ATOM      4  C2  LIG d          87.159 169.996  74.649  0.00  0.00     0.015 C 
ATOM      5  C3  LIG d          85.617 169.841  74.946  0.00  0.00    -0.117 C 
ATOM      6  C4  LIG d          87.325 171.766  71.274  0.00  0.00    -0.001 C 
ATOM      7  C5  LIG d          88.941 170.746  72.865  0.00  0.00     0.013 C 
ATOM      8  C6  LIG d          85.198 171.158  72.663  0.00  0.00    -0.019 C 
ATOM      9  C7  LIG d          88.835 171.541  71.541  0.00  0.00     0.012 C 
ATOM     10  C8  LIG d          85.078 168.379  74.676  0.00  0.00     0.044 C 
ATOM     11  C9  LIG d          84.753 170.813  74.081  0.00  0.00     0.572 C 
ATOM     12  C10 LIG d          87.972 168.869  75.312  0.00  0.00     0.061 C 
ATOM     13  C11 LIG d          87.317 168.982  72.278  0.00  0.00     0.027 C 
ATOM     14  C12 LIG d          86.855 172.798  73.535  0.00  0.00     0.027 C 
ATOM     15  C14 LIG d          86.081 167.245  74.912  0.00  0.00    -0.109 C 
ATOM     16  C15 LIG d          85.417 170.256  76.432  0.00  0.00     0.047 C 
ATOM     17  C16 LIG d          83.764 168.084  75.440  0.00  0.00     0.033 C 
ATOM     18  C17 LIG d          87.360 167.509  75.233  0.00  0.00    -0.037 C 
ATOM     19  C18 LIG d          85.558 165.803  74.689  0.00  0.00    -0.043 C 
ATOM     20  C19 LIG d          83.186 166.712  75.105  0.00  0.00    -0.003 C 
ATOM     21  C20 LIG d          84.191 165.602  75.405  0.00  0.00     0.222 C 
ATOM     22  C23 LIG d          86.533 164.697  75.174  0.00  0.00     0.034 C 
ATOM     23  C24 LIG d          85.382 165.581  73.166  0.00  0.00     0.034 C 
ENDROOT
BRANCH   6  24
ATOM     24  C13 LIG d          87.044 173.107  70.607  0.00  0.00    -0.008 C 
ATOM     25  C22 LIG d          86.287 172.886  69.294  0.00  0.00     0.015 C 
BRANCH  24  26
ATOM     26  C21 LIG d          88.367 173.876  70.391  0.00  0.00     0.008 C 
BRANCH  26  27
ATOM     27  C25 LIG d          88.322 175.375  70.714  0.00  0.00     0.049 C 
BRANCH  27  28
ATOM     28  C26 LIG d          87.187 175.738  71.631  0.00  0.00    -0.055 C 
ATOM     29  C27 LIG d          86.417 176.843  71.612  0.00  0.00    -0.124 C 
ATOM     30  C29 LIG d          85.315 177.017  72.623  0.00  0.00     0.063 C 
ATOM     31  C28 LIG d          86.544 177.980  70.639  0.00  0.00     0.063 C 
ENDBRANCH  27  28
ENDBRANCH  26  27
ENDBRANCH  24  26
ENDBRANCH   6  24
BRANCH  21  32
ATOM     32  O1  LIG d          84.361 165.550  76.824  0.00  0.00    -0.596 OA
ATOM     33  H40 LIG d          84.536 164.626  77.067  0.00  0.00     0.401 HD
ENDBRANCH  21  32
TORSDOF 5
ENDMDL
MODEL 6
REMARK VINA RESULT:     -10.2      2.246      7.908
REMARK  5 active torsions:
REMARK  status: ('A' for Active; 'I' for Inactive)
REMARK    1  A    between atoms: O1_2  and  C20_23 
REMARK    2  A    between atoms: C4_7  and  C13_16 
REMARK    3  A    between atoms: C13_16  and  C21_24 
REMARK    4  A    between atoms: C21_24  and  C25_28 
REMARK    5  A    between atoms: C25_28  and  C26_29 
ROOT
ATOM      1  O   LIG d          88.826 169.364  73.398  0.00  0.00    -0.544 OA
ATOM      2  C   LIG d          84.856 170.645  73.263  0.00  0.00    -0.045 C 
ATOM      3  C1  LIG d          85.311 169.199  73.681  0.00  0.00    -0.036 C 
ATOM      4  C2  LIG d          85.938 171.665  73.734  0.00  0.00     0.015 C 
ATOM      5  C3  LIG d          87.399 171.341  73.234  0.00  0.00    -0.117 C 
ATOM      6  C4  LIG d          84.034 168.380  73.365  0.00  0.00    -0.001 C 
ATOM      7  C5  LIG d          83.493 170.726  73.987  0.00  0.00     0.013 C 
ATOM      8  C6  LIG d          86.563 168.831  72.891  0.00  0.00    -0.019 C 
ATOM      9  C7  LIG d          82.893 169.304  73.860  0.00  0.00     0.012 C 
ATOM     10  C8  LIG d          87.687 171.877  71.774  0.00  0.00     0.044 C 
ATOM     11  C9  LIG d          87.687 169.807  73.223  0.00  0.00     0.572 C 
ATOM     12  C10 LIG d          85.582 173.145  73.500  0.00  0.00     0.061 C 
ATOM     13  C11 LIG d          84.526 170.809  71.747  0.00  0.00     0.027 C 
ATOM     14  C12 LIG d          85.651 169.028  75.199  0.00  0.00     0.027 C 
ATOM     15  C14 LIG d          86.942 173.156  71.374  0.00  0.00    -0.109 C 
ATOM     16  C15 LIG d          88.365 171.978  74.274  0.00  0.00     0.047 C 
ATOM     17  C16 LIG d          89.200 172.041  71.494  0.00  0.00     0.033 C 
ATOM     18  C17 LIG d          86.034 173.713  72.195  0.00  0.00    -0.037 C 
ATOM     19  C18 LIG d          87.243 173.715  69.960  0.00  0.00    -0.043 C 
ATOM     20  C19 LIG d          89.487 172.461  70.055  0.00  0.00    -0.003 C 
ATOM     21  C20 LIG d          88.777 173.767  69.709  0.00  0.00     0.222 C 
ATOM     22  C23 LIG d          86.655 175.129  69.705  0.00  0.00     0.034 C 
ATOM     23  C24 LIG d          86.578 172.781  68.919  0.00  0.00     0.034 C 
ENDROOT
BRANCH   6  24
ATOM     24  C13 LIG d          83.941 166.975  73.947  0.00  0.00    -0.008 C 
ATOM     25  C22 LIG d          83.251 166.042  72.948  0.00  0.00     0.015 C 
BRANCH  24  26
ATOM     26  C21 LIG d          83.206 167.016  75.306  0.00  0.00     0.008 C 
BRANCH  26  27
ATOM     27  C25 LIG d          83.593 165.914  76.302  0.00  0.00     0.049 C 
BRANCH  27  28
ATOM     28  C26 LIG d          85.059 165.923  76.637  0.00  0.00    -0.055 C 
ATOM     29  C27 LIG d          86.050 165.210  76.070  0.00  0.00    -0.124 C 
ATOM     30  C29 LIG d          87.469 165.370  76.551  0.00  0.00     0.063 C 
ATOM     31  C28 LIG d          85.888 164.224  74.950  0.00  0.00     0.063 C 
ENDBRANCH  27  28
ENDBRANCH  26  27
ENDBRANCH  24  26
ENDBRANCH   6  24
BRANCH  21  32
ATOM     32  O1  LIG d          89.386 174.805  70.482  0.00  0.00    -0.596 OA
ATOM     33  H40 LIG d          88.836 175.601  70.392  0.00  0.00     0.401 HD
ENDBRANCH  21  32
TORSDOF 5
ENDMDL
MODEL 7
REMARK VINA RESULT:     -10.2      2.390      7.834
REMARK  5 active torsions:
REMARK  status: ('A' for Active; 'I' for Inactive)
REMARK    1  A    between atoms: O1_2  and  C20_23 
REMARK    2  A    between atoms: C4_7  and  C13_16 
REMARK    3  A    between atoms: C13_16  and  C21_24 
REMARK    4  A    between atoms: C21_24  and  C25_28 
REMARK    5  A    between atoms: C25_28  and  C26_29 
ROOT
ATOM      1  O   LIG d          87.618 174.140  74.761  0.00  0.00    -0.544 OA
ATOM      2  C   LIG d          85.338 171.585  72.374  0.00  0.00    -0.045 C 
ATOM      3  C1  LIG d          85.511 171.432  73.929  0.00  0.00    -0.036 C 
ATOM      4  C2  LIG d          85.347 173.104  72.018  0.00  0.00     0.015 C 
ATOM      5  C3  LIG d          86.609 173.889  72.549  0.00  0.00    -0.117 C 
ATOM      6  C4  LIG d          85.231 169.919  74.113  0.00  0.00    -0.001 C 
ATOM      7  C5  LIG d          83.990 170.855  72.173  0.00  0.00     0.013 C 
ATOM      8  C6  LIG d          86.906 171.913  74.316  0.00  0.00    -0.019 C 
ATOM      9  C7  LIG d          84.035 169.665  73.162  0.00  0.00     0.012 C 
ATOM     10  C8  LIG d          87.861 173.769  71.590  0.00  0.00     0.044 C 
ATOM     11  C9  LIG d          87.062 173.387  73.956  0.00  0.00     0.572 C 
ATOM     12  C10 LIG d          85.069 173.428  70.539  0.00  0.00     0.061 C 
ATOM     13  C11 LIG d          86.370 170.785  71.522  0.00  0.00     0.027 C 
ATOM     14  C12 LIG d          84.484 172.238  74.791  0.00  0.00     0.027 C 
ATOM     15  C14 LIG d          87.546 173.625  70.097  0.00  0.00    -0.109 C 
ATOM     16  C15 LIG d          86.161 175.369  72.716  0.00  0.00     0.047 C 
ATOM     17  C16 LIG d          88.880 174.914  71.804  0.00  0.00     0.033 C 
ATOM     18  C17 LIG d          86.277 173.514  69.665  0.00  0.00    -0.037 C 
ATOM     19  C18 LIG d          88.763 173.544  69.140  0.00  0.00    -0.043 C 
ATOM     20  C19 LIG d          90.137 174.746  70.954  0.00  0.00    -0.003 C 
ATOM     21  C20 LIG d          89.791 174.665  69.469  0.00  0.00     0.222 C 
ATOM     22  C23 LIG d          88.389 173.647  67.637  0.00  0.00     0.034 C 
ATOM     23  C24 LIG d          89.431 172.159  69.322  0.00  0.00     0.034 C 
ENDROOT
BRANCH   6  24
ATOM     24  C13 LIG d          84.967 169.422  75.529  0.00  0.00    -0.008 C 
ATOM     25  C22 LIG d          86.292 169.269  76.283  0.00  0.00     0.015 C 
BRANCH  24  26
ATOM     26  C21 LIG d          84.170 168.099  75.483  0.00  0.00     0.008 C 
BRANCH  26  27
ATOM     27  C25 LIG d          85.015 166.819  75.414  0.00  0.00     0.049 C 
BRANCH  27  28
ATOM     28  C26 LIG d          85.204 166.323  74.007  0.00  0.00    -0.055 C 
ATOM     29  C27 LIG d          86.297 166.420  73.226  0.00  0.00    -0.124 C 
ATOM     30  C29 LIG d          86.286 165.847  71.833  0.00  0.00     0.063 C 
ATOM     31  C28 LIG d          87.594 167.068  73.615  0.00  0.00     0.063 C 
ENDBRANCH  27  28
ENDBRANCH  26  27
ENDBRANCH  24  26
ENDBRANCH   6  24
BRANCH  21  32
ATOM     32  O1  LIG d          89.293 175.946  69.073  0.00  0.00    -0.596 OA
ATOM     33  H40 LIG d          88.973 175.869  68.159  0.00  0.00     0.401 HD
ENDBRANCH  21  32
TORSDOF 5
ENDMDL
MODEL 8
REMARK VINA RESULT:     -10.1      3.302      8.746
REMARK  5 active torsions:
REMARK  status: ('A' for Active; 'I' for Inactive)
REMARK    1  A    between atoms: O1_2  and  C20_23 
REMARK    2  A    between atoms: C4_7  and  C13_16 
REMARK    3  A    between atoms: C13_16  and  C21_24 
REMARK    4  A    between atoms: C21_24  and  C25_28 
REMARK    5  A    between atoms: C25_28  and  C26_29 
ROOT
ATOM      1  O   LIG d          87.747 172.128  67.786  0.00  0.00    -0.544 OA
ATOM      2  C   LIG d          87.854 173.231  71.810  0.00  0.00    -0.045 C 
ATOM      3  C1  LIG d          86.790 172.260  71.182  0.00  0.00    -0.036 C 
ATOM      4  C2  LIG d          89.214 173.029  71.071  0.00  0.00     0.015 C 
ATOM      5  C3  LIG d          89.130 173.184  69.503  0.00  0.00    -0.117 C 
ATOM      6  C4  LIG d          85.615 172.417  72.180  0.00  0.00    -0.001 C 
ATOM      7  C5  LIG d          87.815 172.768  73.284  0.00  0.00     0.013 C 
ATOM      8  C6  LIG d          86.519 172.693  69.744  0.00  0.00    -0.019 C 
ATOM      9  C7  LIG d          86.326 172.444  73.556  0.00  0.00     0.012 C 
ATOM     10  C8  LIG d          89.218 174.688  69.024  0.00  0.00     0.044 C 
ATOM     11  C9  LIG d          87.803 172.598  68.926  0.00  0.00     0.572 C 
ATOM     12  C10 LIG d          90.394 173.829  71.650  0.00  0.00     0.061 C 
ATOM     13  C11 LIG d          87.428 174.731  71.839  0.00  0.00     0.027 C 
ATOM     14  C12 LIG d          87.213 170.753  71.142  0.00  0.00     0.027 C 
ATOM     15  C14 LIG d          90.063 175.619  69.901  0.00  0.00    -0.109 C 
ATOM     16  C15 LIG d          90.294 172.333  68.920  0.00  0.00     0.047 C 
ATOM     17  C16 LIG d          89.664 174.812  67.547  0.00  0.00     0.033 C 
ATOM     18  C17 LIG d          90.604 175.182  71.052  0.00  0.00    -0.037 C 
ATOM     19  C18 LIG d          90.191 177.089  69.425  0.00  0.00    -0.043 C 
ATOM     20  C19 LIG d          89.653 176.255  67.050  0.00  0.00    -0.003 C 
ATOM     21  C20 LIG d          90.549 177.142  67.911  0.00  0.00     0.222 C 
ATOM     22  C23 LIG d          91.245 177.915  70.208  0.00  0.00     0.034 C 
ATOM     23  C24 LIG d          88.832 177.794  69.661  0.00  0.00     0.034 C 
ENDROOT
BRANCH   6  24
ATOM     24  C13 LIG d          84.500 171.380  72.118  0.00  0.00    -0.008 C 
ATOM     25  C22 LIG d          83.531 171.725  70.983  0.00  0.00     0.015 C 
BRANCH  24  26
ATOM     26  C21 LIG d          83.785 171.295  73.486  0.00  0.00     0.008 C 
BRANCH  26  27
ATOM     27  C25 LIG d          83.641 169.884  74.071  0.00  0.00     0.049 C 
BRANCH  27  28
ATOM     28  C26 LIG d          84.424 168.854  73.305  0.00  0.00    -0.055 C 
ATOM     29  C27 LIG d          85.669 168.402  73.545  0.00  0.00    -0.124 C 
ATOM     30  C29 LIG d          86.279 167.352  72.653  0.00  0.00     0.063 C 
ATOM     31  C28 LIG d          86.562 168.852  74.665  0.00  0.00     0.063 C 
ENDBRANCH  27  28
ENDBRANCH  26  27
ENDBRANCH  24  26
ENDBRANCH   6  24
BRANCH  21  32
ATOM     32  O1  LIG d          91.901 176.728  67.692  0.00  0.00    -0.596 OA
ATOM     33  H40 LIG d          92.249 177.242  66.945  0.00  0.00     0.401 HD
ENDBRANCH  21  32
TORSDOF 5
ENDMDL
MODEL 9
REMARK VINA RESULT:     -10.0      2.181      8.151
REMARK  5 active torsions:
REMARK  status: ('A' for Active; 'I' for Inactive)
REMARK    1  A    between atoms: O1_2  and  C20_23 
REMARK    2  A    between atoms: C4_7  and  C13_16 
REMARK    3  A    between atoms: C13_16  and  C21_24 
REMARK    4  A    between atoms: C21_24  and  C25_28 
REMARK    5  A    between atoms: C25_28  and  C26_29 
ROOT
ATOM      1  O   LIG d          87.443 173.533  74.975  0.00  0.00    -0.544 OA
ATOM      2  C   LIG d          85.393 170.735  72.654  0.00  0.00    -0.045 C 
ATOM      3  C1  LIG d          85.698 170.567  74.187  0.00  0.00    -0.036 C 
ATOM      4  C2  LIG d          85.156 172.247  72.354  0.00  0.00     0.015 C 
ATOM      5  C3  LIG d          86.325 173.195  72.828  0.00  0.00    -0.117 C 
ATOM      6  C4  LIG d          85.655 169.025  74.334  0.00  0.00    -0.001 C 
ATOM      7  C5  LIG d          84.155 169.819  72.517  0.00  0.00     0.013 C 
ATOM      8  C6  LIG d          87.033 171.238  74.498  0.00  0.00    -0.019 C 
ATOM      9  C7  LIG d          84.443 168.623  73.456  0.00  0.00     0.012 C 
ATOM     10  C8  LIG d          87.509 173.287  71.784  0.00  0.00     0.044 C 
ATOM     11  C9  LIG d          86.945 172.728  74.182  0.00  0.00     0.572 C 
ATOM     12  C10 LIG d          84.728 172.565  70.910  0.00  0.00     0.061 C 
ATOM     13  C11 LIG d          86.467 170.118  71.706  0.00  0.00     0.027 C 
ATOM     14  C12 LIG d          84.629 171.190  75.145  0.00  0.00     0.027 C 
ATOM     15  C14 LIG d          87.113 173.138  70.311  0.00  0.00    -0.109 C 
ATOM     16  C15 LIG d          85.680 174.588  73.079  0.00  0.00     0.047 C 
ATOM     17  C16 LIG d          88.364 174.563  71.971  0.00  0.00     0.033 C 
ATOM     18  C17 LIG d          85.846 172.852  69.961  0.00  0.00    -0.037 C 
ATOM     19  C18 LIG d          88.256 173.263  69.272  0.00  0.00    -0.043 C 
ATOM     20  C19 LIG d          89.567 174.606  71.033  0.00  0.00    -0.003 C 
ATOM     21  C20 LIG d          89.131 174.514  69.573  0.00  0.00     0.222 C 
ATOM     22  C23 LIG d          87.765 173.349  67.803  0.00  0.00     0.034 C 
ATOM     23  C24 LIG d          89.130 171.987  69.358  0.00  0.00     0.034 C 
ENDROOT
BRANCH   6  24
ATOM     24  C13 LIG d          85.568 168.457  75.745  0.00  0.00    -0.008 C 
ATOM     25  C22 LIG d          86.730 167.489  75.990  0.00  0.00     0.015 C 
BRANCH  24  26
ATOM     26  C21 LIG d          84.195 167.781  75.957  0.00  0.00     0.008 C 
BRANCH  26  27
ATOM     27  C25 LIG d          84.240 166.341  76.487  0.00  0.00     0.049 C 
BRANCH  27  28
ATOM     28  C26 LIG d          83.514 165.371  75.597  0.00  0.00    -0.055 C 
ATOM     29  C27 LIG d          84.006 164.647  74.574  0.00  0.00    -0.124 C 
ATOM     30  C29 LIG d          83.106 163.718  73.802  0.00  0.00     0.063 C 
ATOM     31  C28 LIG d          85.429 164.664  74.095  0.00  0.00     0.063 C 
ENDBRANCH  27  28
ENDBRANCH  26  27
ENDBRANCH  24  26
ENDBRANCH   6  24
BRANCH  21  32
ATOM     32  O1  LIG d          88.425 175.718  69.258  0.00  0.00    -0.596 OA
ATOM     33  H40 LIG d          88.346 175.770  68.291  0.00  0.00     0.401 HD
ENDBRANCH  21  32
TORSDOF 5
ENDMDL
