MODEL 1
REMARK VINA RESULT:     -11.3      0.000      0.000
REMARK  5 active torsions:
REMARK  status: ('A' for Active; 'I' for Inactive)
REMARK    1  A    between atoms: O_1  and  C20_22 
REMARK    2  A    between atoms: C4_6  and  C13_15 
REMARK    3  A    between atoms: C13_15  and  C21_23 
REMARK    4  A    between atoms: C21_23  and  C25_27 
REMARK    5  A    between atoms: C25_27  and  C26_28 
ROOT
ATOM      1  O   LIG d          85.752 165.870  78.141  0.00  0.00    -0.597 OA
ATOM      2  H42 LIG d          86.150 165.014  78.370  0.00  0.00     0.399 HD
ENDROOT
BRANCH   1   3
ATOM      3  C20 LIG d          85.130 165.736  76.859  0.00  0.00     0.181 C 
ATOM      4  C18 LIG d          86.189 165.945  75.741  0.00  0.00    -0.040 C 
ATOM      5  C14 LIG d          86.589 167.439  75.642  0.00  0.00    -0.088 C 
ATOM      6  C23 LIG d          87.379 164.991  76.025  0.00  0.00     0.022 C 
ATOM      7  C24 LIG d          85.600 165.511  74.377  0.00  0.00     0.022 C 
ATOM      8  C8  LIG d          85.440 168.455  75.617  0.00  0.00     0.037 C 
ATOM      9  C17 LIG d          87.869 167.837  75.516  0.00  0.00    -0.051 C 
ATOM     10  C3  LIG d          85.870 169.984  75.556  0.00  0.00    -0.023 C 
ATOM     11  C16 LIG d          84.460 168.159  76.781  0.00  0.00     0.033 C 
ATOM     12  C2  LIG d          87.222 170.199  74.761  0.00  0.00     0.011 C 
ATOM     13  C7  LIG d          84.684 170.827  74.955  0.00  0.00     0.004 C 
ATOM     14  C15 LIG d          86.109 170.529  76.997  0.00  0.00     0.016 C 
ATOM     15  C   LIG d          87.049 170.272  73.209  0.00  0.00    -0.038 C 
ATOM     16  C10 LIG d          88.318 169.237  75.251  0.00  0.00     0.054 C 
ATOM     17  C1  LIG d          85.997 171.390  72.864  0.00  0.00    -0.038 C 
ATOM     18  C6  LIG d          88.265 170.791  72.410  0.00  0.00     0.007 C 
ATOM     19  C11 LIG d          86.734 168.870  72.596  0.00  0.00     0.020 C 
ATOM     20  C4  LIG d          86.126 171.456  71.323  0.00  0.00    -0.004 C 
ATOM     21  C5  LIG d          84.634 170.963  73.421  0.00  0.00     0.018 C 
ATOM     22  C12 LIG d          86.330 172.806  73.445  0.00  0.00     0.019 C 
ATOM     23  C9  LIG d          87.660 171.359  71.101  0.00  0.00     0.005 C 
ATOM     24  C19 LIG d          83.963 166.716  76.774  0.00  0.00     0.026 C 
BRANCH  20  25
ATOM     25  C13 LIG d          85.509 172.661  70.621  0.00  0.00    -0.008 C 
ATOM     26  C22 LIG d          84.180 172.257  69.973  0.00  0.00     0.012 C 
BRANCH  25  27
ATOM     27  C21 LIG d          86.440 173.262  69.547  0.00  0.00     0.006 C 
BRANCH  27  28
ATOM     28  C25 LIG d          86.910 174.699  69.816  0.00  0.00     0.050 C 
BRANCH  28  29
ATOM     29  C26 LIG d          86.232 175.317  71.008  0.00  0.00    -0.054 C 
ATOM     30  C27 LIG d          86.138 176.621  71.333  0.00  0.00    -0.126 C 
ATOM     31  C28 LIG d          85.402 177.040  72.579  0.00  0.00     0.062 C 
ATOM     32  C29 LIG d          86.717 177.762  70.547  0.00  0.00     0.062 C 
ENDBRANCH  28  29
ENDBRANCH  27  28
ENDBRANCH  25  27
ENDBRANCH  20  25
ENDBRANCH   1   3
TORSDOF 5
ENDMDL
MODEL 2
REMARK VINA RESULT:     -11.2      1.153      1.918
REMARK  5 active torsions:
REMARK  status: ('A' for Active; 'I' for Inactive)
REMARK    1  A    between atoms: O_1  and  C20_22 
REMARK    2  A    between atoms: C4_6  and  C13_15 
REMARK    3  A    between atoms: C13_15  and  C21_23 
REMARK    4  A    between atoms: C21_23  and  C25_27 
REMARK    5  A    between atoms: C25_27  and  C26_28 
ROOT
ATOM      1  O   LIG d          85.780 165.854  78.163  0.00  0.00    -0.597 OA
ATOM      2  H42 LIG d          86.411 166.590  78.104  0.00  0.00     0.399 HD
ENDROOT
BRANCH   1   3
ATOM      3  C20 LIG d          85.159 165.706  76.882  0.00  0.00     0.181 C 
ATOM      4  C18 LIG d          86.217 165.910  75.762  0.00  0.00    -0.040 C 
ATOM      5  C14 LIG d          86.610 167.405  75.650  0.00  0.00    -0.088 C 
ATOM      6  C23 LIG d          87.411 164.964  76.054  0.00  0.00     0.022 C 
ATOM      7  C24 LIG d          85.630 165.462  74.402  0.00  0.00     0.022 C 
ATOM      8  C8  LIG d          85.456 168.416  75.617  0.00  0.00     0.037 C 
ATOM      9  C17 LIG d          87.887 167.808  75.521  0.00  0.00    -0.051 C 
ATOM     10  C3  LIG d          85.878 169.946  75.543  0.00  0.00    -0.023 C 
ATOM     11  C16 LIG d          84.477 168.124  76.783  0.00  0.00     0.033 C 
ATOM     12  C2  LIG d          87.229 170.161  74.746  0.00  0.00     0.011 C 
ATOM     13  C7  LIG d          84.688 170.778  74.934  0.00  0.00     0.004 C 
ATOM     14  C15 LIG d          86.115 170.504  76.979  0.00  0.00     0.016 C 
ATOM     15  C   LIG d          87.055 170.220  73.193  0.00  0.00    -0.038 C 
ATOM     16  C10 LIG d          88.330 169.208  75.243  0.00  0.00     0.054 C 
ATOM     17  C1  LIG d          85.998 171.329  72.839  0.00  0.00    -0.038 C 
ATOM     18  C6  LIG d          88.269 170.738  72.389  0.00  0.00     0.007 C 
ATOM     19  C11 LIG d          86.748 168.812  72.593  0.00  0.00     0.020 C 
ATOM     20  C4  LIG d          86.127 171.384  71.297  0.00  0.00    -0.004 C 
ATOM     21  C5  LIG d          84.638 170.901  73.399  0.00  0.00     0.018 C 
ATOM     22  C12 LIG d          86.324 172.752  73.408  0.00  0.00     0.019 C 
ATOM     23  C9  LIG d          87.661 171.292  71.076  0.00  0.00     0.005 C 
ATOM     24  C19 LIG d          83.987 166.679  76.789  0.00  0.00     0.026 C 
BRANCH  20  25
ATOM     25  C13 LIG d          85.504 172.579  70.585  0.00  0.00    -0.008 C 
ATOM     26  C22 LIG d          84.112 172.204  70.064  0.00  0.00     0.012 C 
BRANCH  25  27
ATOM     27  C21 LIG d          86.370 173.088  69.412  0.00  0.00     0.006 C 
BRANCH  27  28
ATOM     28  C25 LIG d          86.967 174.489  69.598  0.00  0.00     0.050 C 
BRANCH  28  29
ATOM     29  C26 LIG d          87.685 174.982  68.372  0.00  0.00    -0.054 C 
ATOM     30  C27 LIG d          88.960 174.759  68.003  0.00  0.00    -0.126 C 
ATOM     31  C28 LIG d          89.492 175.341  66.720  0.00  0.00     0.062 C 
ATOM     32  C29 LIG d          89.964 173.950  68.774  0.00  0.00     0.062 C 
ENDBRANCH  28  29
ENDBRANCH  27  28
ENDBRANCH  25  27
ENDBRANCH  20  25
ENDBRANCH   1   3
TORSDOF 5
ENDMDL
MODEL 3
REMARK VINA RESULT:     -10.6      2.017      3.366
REMARK  5 active torsions:
REMARK  status: ('A' for Active; 'I' for Inactive)
REMARK    1  A    between atoms: O_1  and  C20_22 
REMARK    2  A    between atoms: C4_6  and  C13_15 
REMARK    3  A    between atoms: C13_15  and  C21_23 
REMARK    4  A    between atoms: C21_23  and  C25_27 
REMARK    5  A    between atoms: C25_27  and  C26_28 
ROOT
ATOM      1  O   LIG d          83.446 163.221  74.988  0.00  0.00    -0.597 OA
ATOM      2  H42 LIG d          82.869 163.923  75.333  0.00  0.00     0.399 HD
ENDROOT
BRANCH   1   3
ATOM      3  C20 LIG d          83.904 163.627  73.694  0.00  0.00     0.181 C 
ATOM      4  C18 LIG d          85.209 164.458  73.839  0.00  0.00    -0.040 C 
ATOM      5  C14 LIG d          84.900 165.861  74.420  0.00  0.00    -0.088 C 
ATOM      6  C23 LIG d          86.210 163.631  74.687  0.00  0.00     0.022 C 
ATOM      7  C24 LIG d          85.866 164.643  72.449  0.00  0.00     0.022 C 
ATOM      8  C8  LIG d          83.736 166.627  73.776  0.00  0.00     0.037 C 
ATOM      9  C17 LIG d          85.645 166.421  75.390  0.00  0.00    -0.051 C 
ATOM     10  C3  LIG d          83.408 168.047  74.411  0.00  0.00    -0.023 C 
ATOM     11  C16 LIG d          82.490 165.707  73.699  0.00  0.00     0.033 C 
ATOM     12  C2  LIG d          84.699 168.767  74.977  0.00  0.00     0.011 C 
ATOM     13  C7  LIG d          82.655 168.925  73.342  0.00  0.00     0.004 C 
ATOM     14  C15 LIG d          82.427 167.881  75.611  0.00  0.00     0.016 C 
ATOM     15  C   LIG d          85.531 169.534  73.899  0.00  0.00    -0.038 C 
ATOM     16  C10 LIG d          85.514 167.826  75.882  0.00  0.00     0.054 C 
ATOM     17  C1  LIG d          84.589 170.549  73.153  0.00  0.00    -0.038 C 
ATOM     18  C6  LIG d          86.607 170.506  74.431  0.00  0.00     0.007 C 
ATOM     19  C11 LIG d          86.304 168.554  72.961  0.00  0.00     0.020 C 
ATOM     20  C4  LIG d          85.614 171.342  72.307  0.00  0.00    -0.004 C 
ATOM     21  C5  LIG d          83.530 169.753  72.382  0.00  0.00     0.018 C 
ATOM     22  C12 LIG d          83.841 171.559  74.088  0.00  0.00     0.019 C 
ATOM     23  C9  LIG d          86.795 171.543  73.294  0.00  0.00     0.005 C 
ATOM     24  C19 LIG d          82.781 164.387  72.992  0.00  0.00     0.026 C 
BRANCH  20  25
ATOM     25  C13 LIG d          85.143 172.652  71.683  0.00  0.00    -0.008 C 
ATOM     26  C22 LIG d          84.598 172.389  70.275  0.00  0.00     0.012 C 
BRANCH  25  27
ATOM     27  C21 LIG d          86.265 173.710  71.609  0.00  0.00     0.006 C 
BRANCH  27  28
ATOM     28  C25 LIG d          86.750 174.052  70.193  0.00  0.00     0.050 C 
BRANCH  28  29
ATOM     29  C26 LIG d          88.218 173.790  70.003  0.00  0.00    -0.054 C 
ATOM     30  C27 LIG d          88.817 172.663  69.572  0.00  0.00    -0.126 C 
ATOM     31  C28 LIG d          90.316 172.604  69.441  0.00  0.00     0.062 C 
ATOM     32  C29 LIG d          88.116 171.392  69.188  0.00  0.00     0.062 C 
ENDBRANCH  28  29
ENDBRANCH  27  28
ENDBRANCH  25  27
ENDBRANCH  20  25
ENDBRANCH   1   3
TORSDOF 5
ENDMDL
MODEL 4
REMARK VINA RESULT:     -10.6      2.105      3.154
REMARK  5 active torsions:
REMARK  status: ('A' for Active; 'I' for Inactive)
REMARK    1  A    between atoms: O_1  and  C20_22 
REMARK    2  A    between atoms: C4_6  and  C13_15 
REMARK    3  A    between atoms: C13_15  and  C21_23 
REMARK    4  A    between atoms: C21_23  and  C25_27 
REMARK    5  A    between atoms: C25_27  and  C26_28 
ROOT
ATOM      1  O   LIG d          82.469 167.481  76.366  0.00  0.00    -0.597 OA
ATOM      2  H42 LIG d          83.070 167.488  77.129  0.00  0.00     0.399 HD
ENDROOT
BRANCH   1   3
ATOM      3  C20 LIG d          83.179 166.924  75.255  0.00  0.00     0.181 C 
ATOM      4  C18 LIG d          84.705 167.139  75.450  0.00  0.00    -0.040 C 
ATOM      5  C14 LIG d          85.078 168.627  75.233  0.00  0.00    -0.088 C 
ATOM      6  C23 LIG d          85.090 166.590  76.849  0.00  0.00     0.022 C 
ATOM      7  C24 LIG d          85.487 166.289  74.419  0.00  0.00     0.022 C 
ATOM      8  C8  LIG d          84.504 169.301  73.979  0.00  0.00     0.037 C 
ATOM      9  C17 LIG d          85.914 169.289  76.053  0.00  0.00    -0.051 C 
ATOM     10  C3  LIG d          84.863 170.838  73.793  0.00  0.00    -0.023 C 
ATOM     11  C16 LIG d          82.979 169.032  73.899  0.00  0.00     0.033 C 
ATOM     12  C2  LIG d          86.286 171.200  74.385  0.00  0.00     0.011 C 
ATOM     13  C7  LIG d          84.738 171.213  72.269  0.00  0.00     0.004 C 
ATOM     14  C15 LIG d          83.827 171.723  74.550  0.00  0.00     0.016 C 
ATOM     15  C   LIG d          87.479 170.890  73.423  0.00  0.00    -0.038 C 
ATOM     16  C10 LIG d          86.449 170.665  75.819  0.00  0.00     0.054 C 
ATOM     17  C1  LIG d          87.229 171.614  72.049  0.00  0.00    -0.038 C 
ATOM     18  C6  LIG d          88.843 171.505  73.808  0.00  0.00     0.007 C 
ATOM     19  C11 LIG d          87.748 169.356  73.312  0.00  0.00     0.020 C 
ATOM     20  C4  LIG d          88.581 171.375  71.335  0.00  0.00    -0.004 C 
ATOM     21  C5  LIG d          85.988 170.997  71.395  0.00  0.00     0.018 C 
ATOM     22  C12 LIG d          86.997 173.159  72.155  0.00  0.00     0.019 C 
ATOM     23  C9  LIG d          89.616 171.611  72.468  0.00  0.00     0.005 C 
ATOM     24  C19 LIG d          82.642 167.546  73.968  0.00  0.00     0.026 C 
BRANCH  20  25
ATOM     25  C13 LIG d          88.873 172.210  70.093  0.00  0.00    -0.008 C 
ATOM     26  C22 LIG d          88.609 171.376  68.834  0.00  0.00     0.012 C 
BRANCH  25  27
ATOM     27  C21 LIG d          90.323 172.739  70.062  0.00  0.00     0.006 C 
BRANCH  27  28
ATOM     28  C25 LIG d          90.465 174.250  69.831  0.00  0.00     0.050 C 
BRANCH  28  29
ATOM     29  C26 LIG d          90.253 174.640  68.394  0.00  0.00    -0.054 C 
ATOM     30  C27 LIG d          89.140 175.132  67.817  0.00  0.00    -0.126 C 
ATOM     31  C28 LIG d          89.134 175.471  66.349  0.00  0.00     0.062 C 
ATOM     32  C29 LIG d          87.835 175.391  68.513  0.00  0.00     0.062 C 
ENDBRANCH  28  29
ENDBRANCH  27  28
ENDBRANCH  25  27
ENDBRANCH  20  25
ENDBRANCH   1   3
TORSDOF 5
ENDMDL
MODEL 5
REMARK VINA RESULT:     -10.4      2.742      8.142
REMARK  5 active torsions:
REMARK  status: ('A' for Active; 'I' for Inactive)
REMARK    1  A    between atoms: O_1  and  C20_22 
REMARK    2  A    between atoms: C4_6  and  C13_15 
REMARK    3  A    between atoms: C13_15  and  C21_23 
REMARK    4  A    between atoms: C21_23  and  C25_27 
REMARK    5  A    between atoms: C25_27  and  C26_28 
ROOT
ATOM      1  O   LIG d          89.377 174.426  69.952  0.00  0.00    -0.597 OA
ATOM      2  H42 LIG d          89.099 174.450  70.883  0.00  0.00     0.399 HD
ENDROOT
BRANCH   1   3
ATOM      3  C20 LIG d          88.597 173.426  69.288  0.00  0.00     0.181 C 
ATOM      4  C18 LIG d          87.132 173.479  69.804  0.00  0.00    -0.040 C 
ATOM      5  C14 LIG d          87.041 172.916  71.245  0.00  0.00    -0.088 C 
ATOM      6  C23 LIG d          86.629 174.939  69.664  0.00  0.00     0.022 C 
ATOM      7  C24 LIG d          86.227 172.618  68.889  0.00  0.00     0.022 C 
ATOM      8  C8  LIG d          87.751 171.580  71.503  0.00  0.00     0.037 C 
ATOM      9  C17 LIG d          86.325 173.518  72.211  0.00  0.00    -0.051 C 
ATOM     10  C3  LIG d          87.681 171.037  72.996  0.00  0.00    -0.023 C 
ATOM     11  C16 LIG d          89.202 171.651  70.963  0.00  0.00     0.033 C 
ATOM     12  C2  LIG d          86.338 171.450  73.725  0.00  0.00     0.011 C 
ATOM     13  C7  LIG d          87.900 169.478  72.986  0.00  0.00     0.004 C 
ATOM     14  C15 LIG d          88.848 171.639  73.837  0.00  0.00     0.016 C 
ATOM     15  C   LIG d          85.126 170.512  73.415  0.00  0.00    -0.038 C 
ATOM     16  C10 LIG d          86.055 172.954  73.568  0.00  0.00     0.054 C 
ATOM     17  C1  LIG d          85.528 169.029  73.751  0.00  0.00    -0.038 C 
ATOM     18  C6  LIG d          83.890 170.669  74.329  0.00  0.00     0.007 C 
ATOM     19  C11 LIG d          84.584 170.727  71.967  0.00  0.00     0.020 C 
ATOM     20  C4  LIG d          84.168 168.307  73.594  0.00  0.00    -0.004 C 
ATOM     21  C5  LIG d          86.647 168.601  72.796  0.00  0.00     0.018 C 
ATOM     22  C12 LIG d          86.036 168.802  75.215  0.00  0.00     0.019 C 
ATOM     23  C9  LIG d          83.173 169.297  74.258  0.00  0.00     0.005 C 
ATOM     24  C19 LIG d          89.261 172.068  69.497  0.00  0.00     0.026 C 
BRANCH  20  25
ATOM     25  C13 LIG d          84.056 166.896  74.160  0.00  0.00    -0.008 C 
ATOM     26  C22 LIG d          83.246 166.016  73.202  0.00  0.00     0.012 C 
BRANCH  25  27
ATOM     27  C21 LIG d          83.399 166.869  75.557  0.00  0.00     0.006 C 
BRANCH  27  28
ATOM     28  C25 LIG d          83.897 165.759  76.494  0.00  0.00     0.050 C 
BRANCH  28  29
ATOM     29  C26 LIG d          85.375 165.840  76.758  0.00  0.00    -0.054 C 
ATOM     30  C27 LIG d          86.371 165.167  76.151  0.00  0.00    -0.126 C 
ATOM     31  C28 LIG d          87.802 165.400  76.559  0.00  0.00     0.062 C 
ATOM     32  C29 LIG d          86.201 164.156  75.053  0.00  0.00     0.062 C 
ENDBRANCH  28  29
ENDBRANCH  27  28
ENDBRANCH  25  27
ENDBRANCH  20  25
ENDBRANCH   1   3
TORSDOF 5
ENDMDL
MODEL 6
REMARK VINA RESULT:     -10.4      1.999      2.690
REMARK  5 active torsions:
REMARK  status: ('A' for Active; 'I' for Inactive)
REMARK    1  A    between atoms: O_1  and  C20_22 
REMARK    2  A    between atoms: C4_6  and  C13_15 
REMARK    3  A    between atoms: C13_15  and  C21_23 
REMARK    4  A    between atoms: C21_23  and  C25_27 
REMARK    5  A    between atoms: C25_27  and  C26_28 
ROOT
ATOM      1  O   LIG d          84.143 165.252  76.297  0.00  0.00    -0.597 OA
ATOM      2  H42 LIG d          83.854 165.989  76.861  0.00  0.00     0.399 HD
ENDROOT
BRANCH   1   3
ATOM      3  C20 LIG d          83.944 165.640  74.934  0.00  0.00     0.181 C 
ATOM      4  C18 LIG d          85.317 165.932  74.268  0.00  0.00    -0.040 C 
ATOM      5  C14 LIG d          85.906 167.264  74.797  0.00  0.00    -0.088 C 
ATOM      6  C23 LIG d          86.232 164.701  74.499  0.00  0.00     0.022 C 
ATOM      7  C24 LIG d          85.136 166.058  72.735  0.00  0.00     0.022 C 
ATOM      8  C8  LIG d          84.955 168.468  74.830  0.00  0.00     0.037 C 
ATOM      9  C17 LIG d          87.199 167.393  75.148  0.00  0.00    -0.051 C 
ATOM     10  C3  LIG d          85.565 169.816  75.413  0.00  0.00    -0.023 C 
ATOM     11  C16 LIG d          83.631 168.063  75.529  0.00  0.00     0.033 C 
ATOM     12  C2  LIG d          87.113 169.954  75.115  0.00  0.00     0.011 C 
ATOM     13  C7  LIG d          84.738 171.035  74.858  0.00  0.00     0.004 C 
ATOM     14  C15 LIG d          85.404 169.846  76.963  0.00  0.00     0.016 C 
ATOM     15  C   LIG d          87.445 170.516  73.695  0.00  0.00    -0.038 C 
ATOM     16  C10 LIG d          87.876 168.676  75.506  0.00  0.00     0.054 C 
ATOM     17  C1  LIG d          86.698 171.887  73.500  0.00  0.00    -0.038 C 
ATOM     18  C6  LIG d          88.904 170.969  73.464  0.00  0.00     0.007 C 
ATOM     19  C11 LIG d          87.171 169.461  72.577  0.00  0.00     0.020 C 
ATOM     20  C4  LIG d          87.312 172.374  72.165  0.00  0.00    -0.004 C 
ATOM     21  C5  LIG d          85.189 171.623  73.507  0.00  0.00     0.018 C 
ATOM     22  C12 LIG d          87.002 172.961  74.598  0.00  0.00     0.019 C 
ATOM     23  C9  LIG d          88.814 172.015  72.323  0.00  0.00     0.005 C 
ATOM     24  C19 LIG d          82.990 166.831  74.897  0.00  0.00     0.026 C 
BRANCH  20  25
ATOM     25  C13 LIG d          87.096 173.836  71.788  0.00  0.00    -0.008 C 
ATOM     26  C22 LIG d          86.655 173.934  70.324  0.00  0.00     0.012 C 
BRANCH  25  27
ATOM     27  C21 LIG d          88.362 174.695  72.000  0.00  0.00     0.006 C 
BRANCH  27  28
ATOM     28  C25 LIG d          88.827 175.490  70.772  0.00  0.00     0.050 C 
BRANCH  28  29
ATOM     29  C26 LIG d          90.300 175.340  70.508  0.00  0.00    -0.054 C 
ATOM     30  C27 LIG d          90.936 174.346  69.858  0.00  0.00    -0.126 C 
ATOM     31  C28 LIG d          92.432 174.385  69.690  0.00  0.00     0.062 C 
ATOM     32  C29 LIG d          90.280 173.139  69.251  0.00  0.00     0.062 C 
ENDBRANCH  28  29
ENDBRANCH  27  28
ENDBRANCH  25  27
ENDBRANCH  20  25
ENDBRANCH   1   3
TORSDOF 5
ENDMDL
MODEL 7
REMARK VINA RESULT:     -10.3      3.930      8.914
REMARK  5 active torsions:
REMARK  status: ('A' for Active; 'I' for Inactive)
REMARK    1  A    between atoms: O_1  and  C20_22 
REMARK    2  A    between atoms: C4_6  and  C13_15 
REMARK    3  A    between atoms: C13_15  and  C21_23 
REMARK    4  A    between atoms: C21_23  and  C25_27 
REMARK    5  A    between atoms: C25_27  and  C26_28 
ROOT
ATOM      1  O   LIG d          91.677 176.540  67.783  0.00  0.00    -0.597 OA
ATOM      2  H42 LIG d          92.517 176.981  67.575  0.00  0.00     0.399 HD
ENDROOT
BRANCH   1   3
ATOM      3  C20 LIG d          91.408 176.744  69.174  0.00  0.00     0.181 C 
ATOM      4  C18 LIG d          91.534 175.395  69.934  0.00  0.00    -0.040 C 
ATOM      5  C14 LIG d          90.334 174.471  69.606  0.00  0.00    -0.088 C 
ATOM      6  C23 LIG d          92.916 174.780  69.591  0.00  0.00     0.022 C 
ATOM      7  C24 LIG d          91.541 175.655  71.461  0.00  0.00     0.022 C 
ATOM      8  C8  LIG d          88.939 175.107  69.682  0.00  0.00     0.037 C 
ATOM      9  C17 LIG d          90.484 173.162  69.334  0.00  0.00    -0.051 C 
ATOM     10  C3  LIG d          87.723 174.156  69.303  0.00  0.00    -0.023 C 
ATOM     11  C16 LIG d          88.930 176.433  68.878  0.00  0.00     0.033 C 
ATOM     12  C2  LIG d          87.998 172.645  69.687  0.00  0.00     0.011 C 
ATOM     13  C7  LIG d          86.410 174.711  69.971  0.00  0.00     0.004 C 
ATOM     14  C15 LIG d          87.481 174.188  67.764  0.00  0.00     0.016 C 
ATOM     15  C   LIG d          87.697 172.297  71.181  0.00  0.00    -0.038 C 
ATOM     16  C10 LIG d          89.372 172.177  69.173  0.00  0.00     0.054 C 
ATOM     17  C1  LIG d          86.217 172.713  71.514  0.00  0.00    -0.038 C 
ATOM     18  C6  LIG d          87.640 170.794  71.534  0.00  0.00     0.007 C 
ATOM     19  C11 LIG d          88.773 172.895  72.142  0.00  0.00     0.020 C 
ATOM     20  C4  LIG d          86.046 172.104  72.927  0.00  0.00    -0.004 C 
ATOM     21  C5  LIG d          86.104 174.237  71.404  0.00  0.00     0.018 C 
ATOM     22  C12 LIG d          85.132 172.084  70.575  0.00  0.00     0.019 C 
ATOM     23  C9  LIG d          86.738 170.722  72.793  0.00  0.00     0.005 C 
ATOM     24  C19 LIG d          90.033 177.391  69.318  0.00  0.00     0.026 C 
BRANCH  20  25
ATOM     25  C13 LIG d          84.627 171.998  73.475  0.00  0.00    -0.008 C 
ATOM     26  C22 LIG d          84.409 173.059  74.559  0.00  0.00     0.012 C 
BRANCH  25  27
ATOM     27  C21 LIG d          84.321 170.601  74.057  0.00  0.00     0.006 C 
BRANCH  27  28
ATOM     28  C25 LIG d          83.163 169.850  73.384  0.00  0.00     0.050 C 
BRANCH  28  29
ATOM     29  C26 LIG d          83.492 168.410  73.101  0.00  0.00    -0.054 C 
ATOM     30  C27 LIG d          83.241 167.329  73.865  0.00  0.00    -0.126 C 
ATOM     31  C28 LIG d          83.648 165.958  73.395  0.00  0.00     0.062 C 
ATOM     32  C29 LIG d          82.566 167.345  75.206  0.00  0.00     0.062 C 
ENDBRANCH  28  29
ENDBRANCH  27  28
ENDBRANCH  25  27
ENDBRANCH  20  25
ENDBRANCH   1   3
TORSDOF 5
ENDMDL
MODEL 8
REMARK VINA RESULT:     -10.3      2.654      8.303
REMARK  5 active torsions:
REMARK  status: ('A' for Active; 'I' for Inactive)
REMARK    1  A    between atoms: O_1  and  C20_22 
REMARK    2  A    between atoms: C4_6  and  C13_15 
REMARK    3  A    between atoms: C13_15  and  C21_23 
REMARK    4  A    between atoms: C21_23  and  C25_27 
REMARK    5  A    between atoms: C25_27  and  C26_28 
ROOT
ATOM      1  O   LIG d          88.224 175.342  69.868  0.00  0.00    -0.597 OA
ATOM      2  H42 LIG d          88.305 176.170  70.368  0.00  0.00     0.399 HD
ENDROOT
BRANCH   1   3
ATOM      3  C20 LIG d          86.860 174.916  69.943  0.00  0.00     0.181 C 
ATOM      4  C18 LIG d          86.364 175.010  71.413  0.00  0.00    -0.040 C 
ATOM      5  C14 LIG d          86.998 173.889  72.275  0.00  0.00    -0.088 C 
ATOM      6  C23 LIG d          86.659 176.444  71.926  0.00  0.00     0.022 C 
ATOM      7  C24 LIG d          84.825 174.842  71.455  0.00  0.00     0.022 C 
ATOM      8  C8  LIG d          86.960 172.471  71.688  0.00  0.00     0.037 C 
ATOM      9  C17 LIG d          87.497 174.117  73.503  0.00  0.00    -0.051 C 
ATOM     10  C3  LIG d          87.650 171.340  72.567  0.00  0.00    -0.023 C 
ATOM     11  C16 LIG d          87.490 172.498  70.231  0.00  0.00     0.033 C 
ATOM     12  C2  LIG d          87.535 171.630  74.119  0.00  0.00     0.011 C 
ATOM     13  C7  LIG d          87.043 169.942  72.174  0.00  0.00     0.004 C 
ATOM     14  C15 LIG d          89.173 171.265  72.239  0.00  0.00     0.016 C 
ATOM     15  C   LIG d          86.180 171.181  74.757  0.00  0.00    -0.038 C 
ATOM     16  C10 LIG d          87.970 173.067  74.455  0.00  0.00     0.054 C 
ATOM     17  C1  LIG d          85.944 169.659  74.438  0.00  0.00    -0.038 C 
ATOM     18  C6  LIG d          86.131 171.144  76.300  0.00  0.00     0.007 C 
ATOM     19  C11 LIG d          85.006 172.123  74.340  0.00  0.00     0.020 C 
ATOM     20  C4  LIG d          84.703 169.359  75.313  0.00  0.00    -0.004 C 
ATOM     21  C5  LIG d          85.771 169.501  72.924  0.00  0.00     0.018 C 
ATOM     22  C12 LIG d          87.103 168.707  74.889  0.00  0.00     0.019 C 
ATOM     23  C9  LIG d          85.020 170.115  76.632  0.00  0.00     0.005 C 
ATOM     24  C19 LIG d          86.752 173.509  69.359  0.00  0.00     0.026 C 
BRANCH  20  25
ATOM     25  C13 LIG d          84.351 167.894  75.548  0.00  0.00    -0.008 C 
ATOM     26  C22 LIG d          82.961 167.597  74.973  0.00  0.00     0.012 C 
BRANCH  25  27
ATOM     27  C21 LIG d          84.379 167.511  77.043  0.00  0.00     0.006 C 
BRANCH  27  28
ATOM     28  C25 LIG d          85.117 166.206  77.372  0.00  0.00     0.050 C 
BRANCH  28  29
ATOM     29  C26 LIG d          85.245 165.296  76.181  0.00  0.00    -0.054 C 
ATOM     30  C27 LIG d          86.368 164.846  75.590  0.00  0.00    -0.126 C 
ATOM     31  C28 LIG d          86.282 163.926  74.400  0.00  0.00     0.062 C 
ATOM     32  C29 LIG d          87.771 165.181  76.008  0.00  0.00     0.062 C 
ENDBRANCH  28  29
ENDBRANCH  27  28
ENDBRANCH  25  27
ENDBRANCH  20  25
ENDBRANCH   1   3
TORSDOF 5
ENDMDL
MODEL 9
REMARK VINA RESULT:     -10.3      3.090      8.137
REMARK  5 active torsions:
REMARK  status: ('A' for Active; 'I' for Inactive)
REMARK    1  A    between atoms: O_1  and  C20_22 
REMARK    2  A    between atoms: C4_6  and  C13_15 
REMARK    3  A    between atoms: C13_15  and  C21_23 
REMARK    4  A    between atoms: C21_23  and  C25_27 
REMARK    5  A    between atoms: C25_27  and  C26_28 
ROOT
ATOM      1  O   LIG d          89.339 175.928  68.866  0.00  0.00    -0.597 OA
ATOM      2  H42 LIG d          89.015 175.806  67.958  0.00  0.00     0.399 HD
ENDROOT
BRANCH   1   3
ATOM      3  C20 LIG d          89.855 174.671  69.319  0.00  0.00     0.181 C 
ATOM      4  C18 LIG d          88.807 173.553  69.059  0.00  0.00    -0.040 C 
ATOM      5  C14 LIG d          87.621 173.679  70.048  0.00  0.00    -0.088 C 
ATOM      6  C23 LIG d          88.394 173.622  67.566  0.00  0.00     0.022 C 
ATOM      7  C24 LIG d          89.464 172.166  69.265  0.00  0.00     0.022 C 
ATOM      8  C8  LIG d          87.980 173.873  71.527  0.00  0.00     0.037 C 
ATOM      9  C17 LIG d          86.339 173.558  69.657  0.00  0.00    -0.051 C 
ATOM     10  C3  LIG d          86.751 174.040  72.521  0.00  0.00    -0.023 C 
ATOM     11  C16 LIG d          89.015 175.019  71.663  0.00  0.00     0.033 C 
ATOM     12  C2  LIG d          85.478 173.227  72.048  0.00  0.00     0.011 C 
ATOM     13  C7  LIG d          87.208 173.640  73.974  0.00  0.00     0.004 C 
ATOM     14  C15 LIG d          86.323 175.538  72.592  0.00  0.00     0.016 C 
ATOM     15  C   LIG d          85.493 171.718  72.453  0.00  0.00    -0.038 C 
ATOM     16  C10 LIG d          85.156 173.502  70.568  0.00  0.00     0.054 C 
ATOM     17  C1  LIG d          85.697 171.608  74.009  0.00  0.00    -0.038 C 
ATOM     18  C6  LIG d          84.157 170.956  72.302  0.00  0.00     0.007 C 
ATOM     19  C11 LIG d          86.518 170.902  71.603  0.00  0.00     0.020 C 
ATOM     20  C4  LIG d          85.469 170.094  74.235  0.00  0.00    -0.004 C 
ATOM     21  C5  LIG d          87.087 172.153  74.356  0.00  0.00     0.018 C 
ATOM     22  C12 LIG d          84.647 172.395  74.865  0.00  0.00     0.019 C 
ATOM     23  C9  LIG d          84.257 169.787  73.315  0.00  0.00     0.005 C 
ATOM     24  C19 LIG d          90.246 174.802  70.788  0.00  0.00     0.026 C 
BRANCH  20  25
ATOM     25  C13 LIG d          85.248 169.627  75.670  0.00  0.00    -0.008 C 
ATOM     26  C22 LIG d          86.599 169.462  76.374  0.00  0.00     0.012 C 
BRANCH  25  27
ATOM     27  C21 LIG d          84.465 168.298  75.746  0.00  0.00     0.006 C 
BRANCH  27  28
ATOM     28  C25 LIG d          85.323 167.027  75.668  0.00  0.00     0.050 C 
BRANCH  28  29
ATOM     29  C26 LIG d          85.388 166.454  74.279  0.00  0.00    -0.054 C 
ATOM     30  C27 LIG d          86.402 166.518  73.395  0.00  0.00    -0.126 C 
ATOM     31  C28 LIG d          86.272 165.866  72.044  0.00  0.00     0.062 C 
ATOM     32  C29 LIG d          87.718 167.206  73.622  0.00  0.00     0.062 C 
ENDBRANCH  28  29
ENDBRANCH  27  28
ENDBRANCH  25  27
ENDBRANCH  20  25
ENDBRANCH   1   3
TORSDOF 5
ENDMDL
