MODEL 1
REMARK VINA RESULT:     -10.7      0.000      0.000
REMARK  5 active torsions:
REMARK  status: ('A' for Active; 'I' for Inactive)
REMARK    1  A    between atoms: O1_2  and  C20_23 
REMARK    2  A    between atoms: C4_7  and  C13_16 
REMARK    3  A    between atoms: C13_16  and  C21_24 
REMARK    4  A    between atoms: C21_24  and  C25_28 
REMARK    5  A    between atoms: C25_28  and  C26_29 
ROOT
ATOM      1  O   LIG d          82.603 169.398  71.937  0.00  0.00    -0.544 OA
ATOM      2  C   LIG d          86.637 169.653  72.978  0.00  0.00    -0.045 C 
ATOM      3  C1  LIG d          85.941 170.546  71.888  0.00  0.00    -0.036 C 
ATOM      4  C2  LIG d          85.607 169.354  74.112  0.00  0.00     0.015 C 
ATOM      5  C3  LIG d          84.252 168.719  73.608  0.00  0.00    -0.117 C 
ATOM      6  C4  LIG d          87.152 170.937  71.004  0.00  0.00    -0.001 C 
ATOM      7  C5  LIG d          87.821 170.566  73.369  0.00  0.00     0.013 C 
ATOM      8  C6  LIG d          84.845 169.729  71.211  0.00  0.00    -0.019 C 
ATOM      9  C7  LIG d          88.265 171.226  72.042  0.00  0.00     0.012 C 
ATOM     10  C8  LIG d          84.336 167.151  73.420  0.00  0.00     0.044 C 
ATOM     11  C9  LIG d          83.797 169.319  72.241  0.00  0.00     0.572 C 
ATOM     12  C10 LIG d          86.172 168.582  75.317  0.00  0.00     0.061 C 
ATOM     13  C11 LIG d          87.288 168.347  72.429  0.00  0.00     0.027 C 
ATOM     14  C12 LIG d          85.277 171.855  72.433  0.00  0.00     0.027 C 
ATOM     15  C14 LIG d          85.290 166.415  74.368  0.00  0.00    -0.109 C 
ATOM     16  C15 LIG d          83.174 169.109  74.659  0.00  0.00     0.047 C 
ATOM     17  C16 LIG d          82.942 166.478  73.452  0.00  0.00     0.033 C 
ATOM     18  C17 LIG d          86.068 167.094  75.230  0.00  0.00    -0.037 C 
ATOM     19  C18 LIG d          85.355 164.874  74.222  0.00  0.00    -0.043 C 
ATOM     20  C19 LIG d          83.008 164.979  73.170  0.00  0.00    -0.003 C 
ATOM     21  C20 LIG d          83.921 164.271  74.167  0.00  0.00     0.222 C 
ATOM     22  C23 LIG d          86.141 164.167  75.357  0.00  0.00     0.034 C 
ATOM     23  C24 LIG d          86.107 164.542  72.909  0.00  0.00     0.034 C 
ENDROOT
BRANCH   6  24
ATOM     24  C13 LIG d          86.959 172.083  70.019  0.00  0.00    -0.008 C 
ATOM     25  C22 LIG d          86.743 171.528  68.608  0.00  0.00     0.015 C 
BRANCH  24  26
ATOM     26  C21 LIG d          88.169 173.043  70.085  0.00  0.00     0.008 C 
BRANCH  26  27
ATOM     27  C25 LIG d          89.150 172.955  68.908  0.00  0.00     0.049 C 
BRANCH  27  28
ATOM     28  C26 LIG d          89.737 174.290  68.541  0.00  0.00    -0.055 C 
ATOM     29  C27 LIG d          90.861 174.865  69.007  0.00  0.00    -0.124 C 
ATOM     30  C29 LIG d          91.285 176.220  68.502  0.00  0.00     0.063 C 
ATOM     31  C28 LIG d          91.789 174.272  70.028  0.00  0.00     0.063 C 
ENDBRANCH  27  28
ENDBRANCH  26  27
ENDBRANCH  24  26
ENDBRANCH   6  24
BRANCH  21  32
ATOM     32  O1  LIG d          83.291 164.337  75.449  0.00  0.00    -0.596 OA
ATOM     33  H40 LIG d          82.499 163.774  75.419  0.00  0.00     0.401 HD
ENDBRANCH  21  32
TORSDOF 5
ENDMDL
MODEL 2
REMARK VINA RESULT:     -10.7      1.417      2.082
REMARK  5 active torsions:
REMARK  status: ('A' for Active; 'I' for Inactive)
REMARK    1  A    between atoms: O1_2  and  C20_23 
REMARK    2  A    between atoms: C4_7  and  C13_16 
REMARK    3  A    between atoms: C13_16  and  C21_24 
REMARK    4  A    between atoms: C21_24  and  C25_28 
REMARK    5  A    between atoms: C25_28  and  C26_29 
ROOT
ATOM      1  O   LIG d          82.731 169.471  71.966  0.00  0.00    -0.544 OA
ATOM      2  C   LIG d          86.759 169.621  73.049  0.00  0.00    -0.045 C 
ATOM      3  C1  LIG d          86.093 170.549  71.969  0.00  0.00    -0.036 C 
ATOM      4  C2  LIG d          85.713 169.323  74.167  0.00  0.00     0.015 C 
ATOM      5  C3  LIG d          84.350 168.727  73.639  0.00  0.00    -0.117 C 
ATOM      6  C4  LIG d          87.320 170.930  71.103  0.00  0.00    -0.001 C 
ATOM      7  C5  LIG d          87.959 170.501  73.468  0.00  0.00     0.013 C 
ATOM      8  C6  LIG d          84.986 169.768  71.267  0.00  0.00    -0.019 C 
ATOM      9  C7  LIG d          88.430 171.176  72.157  0.00  0.00     0.012 C 
ATOM     10  C8  LIG d          84.402 167.161  73.423  0.00  0.00     0.044 C 
ATOM     11  C9  LIG d          83.920 169.362  72.279  0.00  0.00     0.572 C 
ATOM     12  C10 LIG d          86.250 168.516  75.363  0.00  0.00     0.061 C 
ATOM     13  C11 LIG d          87.389 168.312  72.481  0.00  0.00     0.027 C 
ATOM     14  C12 LIG d          85.452 171.861  72.532  0.00  0.00     0.027 C 
ATOM     15  C14 LIG d          85.331 166.387  74.365  0.00  0.00    -0.109 C 
ATOM     16  C15 LIG d          83.270 169.120  74.687  0.00  0.00     0.047 C 
ATOM     17  C16 LIG d          82.994 166.517  73.429  0.00  0.00     0.033 C 
ATOM     18  C17 LIG d          86.115 167.034  75.247  0.00  0.00    -0.037 C 
ATOM     19  C18 LIG d          85.365 164.848  74.191  0.00  0.00    -0.043 C 
ATOM     20  C19 LIG d          83.032 165.023  73.120  0.00  0.00    -0.003 C 
ATOM     21  C20 LIG d          83.920 164.276  74.112  0.00  0.00     0.222 C 
ATOM     22  C23 LIG d          86.126 164.103  75.320  0.00  0.00     0.034 C 
ATOM     23  C24 LIG d          86.122 164.525  72.879  0.00  0.00     0.034 C 
ENDROOT
BRANCH   6  24
ATOM     24  C13 LIG d          87.162 172.098  70.138  0.00  0.00    -0.008 C 
ATOM     25  C22 LIG d          86.977 171.574  68.711  0.00  0.00     0.015 C 
BRANCH  24  26
ATOM     26  C21 LIG d          88.376 173.046  70.255  0.00  0.00     0.008 C 
BRANCH  26  27
ATOM     27  C25 LIG d          88.042 174.537  70.403  0.00  0.00     0.049 C 
BRANCH  27  28
ATOM     28  C26 LIG d          86.569 174.787  70.577  0.00  0.00    -0.055 C 
ATOM     29  C27 LIG d          85.929 175.967  70.683  0.00  0.00    -0.124 C 
ATOM     30  C29 LIG d          84.431 176.004  70.847  0.00  0.00     0.063 C 
ATOM     31  C28 LIG d          86.578 177.320  70.654  0.00  0.00     0.063 C 
ENDBRANCH  27  28
ENDBRANCH  26  27
ENDBRANCH  24  26
ENDBRANCH   6  24
BRANCH  21  32
ATOM     32  O1  LIG d          83.278 164.333  75.389  0.00  0.00    -0.596 OA
ATOM     33  H40 LIG d          83.685 165.058  75.892  0.00  0.00     0.401 HD
ENDBRANCH  21  32
TORSDOF 5
ENDMDL
MODEL 3
REMARK VINA RESULT:     -10.6      1.346      1.524
REMARK  5 active torsions:
REMARK  status: ('A' for Active; 'I' for Inactive)
REMARK    1  A    between atoms: O1_2  and  C20_23 
REMARK    2  A    between atoms: C4_7  and  C13_16 
REMARK    3  A    between atoms: C13_16  and  C21_24 
REMARK    4  A    between atoms: C21_24  and  C25_28 
REMARK    5  A    between atoms: C25_28  and  C26_29 
ROOT
ATOM      1  O   LIG d          82.514 169.355  71.939  0.00  0.00    -0.544 OA
ATOM      2  C   LIG d          86.545 169.642  72.982  0.00  0.00    -0.045 C 
ATOM      3  C1  LIG d          85.841 170.536  71.898  0.00  0.00    -0.036 C 
ATOM      4  C2  LIG d          85.518 169.326  74.113  0.00  0.00     0.015 C 
ATOM      5  C3  LIG d          84.170 168.682  73.606  0.00  0.00    -0.117 C 
ATOM      6  C4  LIG d          87.048 170.945  71.016  0.00  0.00    -0.001 C 
ATOM      7  C5  LIG d          87.721 170.564  73.379  0.00  0.00     0.013 C 
ATOM      8  C6  LIG d          84.752 169.714  71.215  0.00  0.00    -0.019 C 
ATOM      9  C7  LIG d          88.158 171.238  72.056  0.00  0.00     0.012 C 
ATOM     10  C8  LIG d          84.269 167.116  73.407  0.00  0.00     0.044 C 
ATOM     11  C9  LIG d          83.709 169.286  72.242  0.00  0.00     0.572 C 
ATOM     12  C10 LIG d          86.091 168.551  75.314  0.00  0.00     0.061 C 
ATOM     13  C11 LIG d          87.210 168.347  72.424  0.00  0.00     0.027 C 
ATOM     14  C12 LIG d          85.164 171.835  72.451  0.00  0.00     0.027 C 
ATOM     15  C14 LIG d          85.230 166.383  74.350  0.00  0.00    -0.109 C 
ATOM     16  C15 LIG d          83.087 169.054  74.659  0.00  0.00     0.047 C 
ATOM     17  C16 LIG d          82.882 166.429  73.434  0.00  0.00     0.033 C 
ATOM     18  C17 LIG d          86.001 167.064  75.217  0.00  0.00    -0.037 C 
ATOM     19  C18 LIG d          85.310 164.843  74.194  0.00  0.00    -0.043 C 
ATOM     20  C19 LIG d          82.963 164.933  73.143  0.00  0.00    -0.003 C 
ATOM     21  C20 LIG d          83.882 164.226  74.135  0.00  0.00     0.222 C 
ATOM     22  C23 LIG d          86.103 164.136  75.325  0.00  0.00     0.034 C 
ATOM     23  C24 LIG d          86.065 164.528  72.879  0.00  0.00     0.034 C 
ENDROOT
BRANCH   6  24
ATOM     24  C13 LIG d          86.844 172.096  70.039  0.00  0.00    -0.008 C 
ATOM     25  C22 LIG d          86.955 171.583  68.600  0.00  0.00     0.015 C 
BRANCH  24  26
ATOM     26  C21 LIG d          87.861 173.222  70.333  0.00  0.00     0.008 C 
BRANCH  26  27
ATOM     27  C25 LIG d          87.260 174.619  70.543  0.00  0.00     0.049 C 
BRANCH  27  28
ATOM     28  C26 LIG d          88.195 175.721  70.128  0.00  0.00    -0.055 C 
ATOM     29  C27 LIG d          88.185 177.013  70.508  0.00  0.00    -0.124 C 
ATOM     30  C29 LIG d          89.224 177.966  69.978  0.00  0.00     0.063 C 
ATOM     31  C28 LIG d          87.200 177.639  71.452  0.00  0.00     0.063 C 
ENDBRANCH  27  28
ENDBRANCH  26  27
ENDBRANCH  24  26
ENDBRANCH   6  24
BRANCH  21  32
ATOM     32  O1  LIG d          83.251 164.278  75.418  0.00  0.00    -0.596 OA
ATOM     33  H40 LIG d          82.622 165.019  75.407  0.00  0.00     0.401 HD
ENDBRANCH  21  32
TORSDOF 5
ENDMDL
MODEL 4
REMARK VINA RESULT:     -10.0      2.086      2.953
REMARK  5 active torsions:
REMARK  status: ('A' for Active; 'I' for Inactive)
REMARK    1  A    between atoms: O1_2  and  C20_23 
REMARK    2  A    between atoms: C4_7  and  C13_16 
REMARK    3  A    between atoms: C13_16  and  C21_24 
REMARK    4  A    between atoms: C21_24  and  C25_28 
REMARK    5  A    between atoms: C25_28  and  C26_29 
ROOT
ATOM      1  O   LIG d          82.853 167.645  71.913  0.00  0.00    -0.544 OA
ATOM      2  C   LIG d          84.925 170.064  74.611  0.00  0.00    -0.045 C 
ATOM      3  C1  LIG d          84.194 170.591  73.323  0.00  0.00    -0.036 C 
ATOM      4  C2  LIG d          84.122 168.854  75.181  0.00  0.00     0.015 C 
ATOM      5  C3  LIG d          83.860 167.698  74.139  0.00  0.00    -0.117 C 
ATOM      6  C4  LIG d          84.970 171.905  73.055  0.00  0.00    -0.001 C 
ATOM      7  C5  LIG d          84.918 171.345  75.476  0.00  0.00     0.013 C 
ATOM      8  C6  LIG d          84.280 169.522  72.238  0.00  0.00    -0.019 C 
ATOM      9  C7  LIG d          85.153 172.500  74.473  0.00  0.00     0.012 C 
ATOM     10  C8  LIG d          85.074 166.693  74.013  0.00  0.00     0.044 C 
ATOM     11  C9  LIG d          83.576 168.253  72.708  0.00  0.00     0.572 C 
ATOM     12  C10 LIG d          84.648 168.296  76.516  0.00  0.00     0.061 C 
ATOM     13  C11 LIG d          86.431 169.715  74.406  0.00  0.00     0.027 C 
ATOM     14  C12 LIG d          82.680 170.936  73.517  0.00  0.00     0.027 C 
ATOM     15  C14 LIG d          85.904 166.485  75.285  0.00  0.00    -0.109 C 
ATOM     16  C15 LIG d          82.568 166.973  74.611  0.00  0.00     0.047 C 
ATOM     17  C16 LIG d          84.647 165.321  73.435  0.00  0.00     0.033 C 
ATOM     18  C17 LIG d          85.654 167.198  76.398  0.00  0.00    -0.037 C 
ATOM     19  C18 LIG d          87.074 165.473  75.188  0.00  0.00    -0.043 C 
ATOM     20  C19 LIG d          85.831 164.383  73.217  0.00  0.00    -0.003 C 
ATOM     21  C20 LIG d          86.600 164.153  74.515  0.00  0.00     0.222 C 
ATOM     22  C23 LIG d          87.718 165.123  76.556  0.00  0.00     0.034 C 
ATOM     23  C24 LIG d          88.199 166.114  74.337  0.00  0.00     0.034 C 
ENDROOT
BRANCH   6  24
ATOM     24  C13 LIG d          84.351 172.899  72.080  0.00  0.00    -0.008 C 
ATOM     25  C22 LIG d          84.743 172.535  70.645  0.00  0.00     0.015 C 
BRANCH  24  26
ATOM     26  C21 LIG d          84.778 174.337  72.451  0.00  0.00     0.008 C 
BRANCH  26  27
ATOM     27  C25 LIG d          84.846 175.331  71.283  0.00  0.00     0.049 C 
BRANCH  27  28
ATOM     28  C26 LIG d          86.062 176.213  71.341  0.00  0.00    -0.055 C 
ATOM     29  C27 LIG d          87.304 175.956  70.890  0.00  0.00    -0.124 C 
ATOM     30  C29 LIG d          88.393 176.985  71.040  0.00  0.00     0.063 C 
ATOM     31  C28 LIG d          87.744 174.688  70.215  0.00  0.00     0.063 C 
ENDBRANCH  27  28
ENDBRANCH  26  27
ENDBRANCH  24  26
ENDBRANCH   6  24
BRANCH  21  32
ATOM     32  O1  LIG d          85.748 163.411  75.393  0.00  0.00    -0.596 OA
ATOM     33  H40 LIG d          85.138 164.039  75.813  0.00  0.00     0.401 HD
ENDBRANCH  21  32
TORSDOF 5
ENDMDL
MODEL 5
REMARK VINA RESULT:      -9.8      2.572      8.653
REMARK  5 active torsions:
REMARK  status: ('A' for Active; 'I' for Inactive)
REMARK    1  A    between atoms: O1_2  and  C20_23 
REMARK    2  A    between atoms: C4_7  and  C13_16 
REMARK    3  A    between atoms: C13_16  and  C21_24 
REMARK    4  A    between atoms: C21_24  and  C25_28 
REMARK    5  A    between atoms: C25_28  and  C26_29 
ROOT
ATOM      1  O   LIG d          84.399 173.937  73.516  0.00  0.00    -0.544 OA
ATOM      2  C   LIG d          85.586 170.132  72.276  0.00  0.00    -0.045 C 
ATOM      3  C1  LIG d          84.908 170.446  73.658  0.00  0.00    -0.036 C 
ATOM      4  C2  LIG d          85.004 171.103  71.201  0.00  0.00     0.015 C 
ATOM      5  C3  LIG d          85.116 172.631  71.577  0.00  0.00    -0.117 C 
ATOM      6  C4  LIG d          85.408 169.255  74.514  0.00  0.00    -0.001 C 
ATOM      7  C5  LIG d          85.207 168.643  72.113  0.00  0.00     0.013 C 
ATOM      8  C6  LIG d          85.343 171.836  74.114  0.00  0.00    -0.019 C 
ATOM      9  C7  LIG d          85.299 168.054  73.542  0.00  0.00     0.012 C 
ATOM     10  C8  LIG d          86.524 173.255  71.219  0.00  0.00     0.044 C 
ATOM     11  C9  LIG d          84.881 172.878  73.101  0.00  0.00     0.572 C 
ATOM     12  C10 LIG d          85.485 170.844  69.762  0.00  0.00     0.061 C 
ATOM     13  C11 LIG d          87.145 170.159  72.295  0.00  0.00     0.027 C 
ATOM     14  C12 LIG d          83.343 170.429  73.645  0.00  0.00     0.027 C 
ATOM     15  C14 LIG d          87.231 172.651  70.001  0.00  0.00    -0.109 C 
ATOM     16  C15 LIG d          83.966 173.350  70.817  0.00  0.00     0.047 C 
ATOM     17  C16 LIG d          86.470 174.796  71.084  0.00  0.00     0.033 C 
ATOM     18  C17 LIG d          86.710 171.594  69.353  0.00  0.00    -0.037 C 
ATOM     19  C18 LIG d          88.595 173.277  69.614  0.00  0.00    -0.043 C 
ATOM     20  C19 LIG d          87.844 175.412  70.839  0.00  0.00    -0.003 C 
ATOM     21  C20 LIG d          88.494 174.830  69.586  0.00  0.00     0.222 C 
ATOM     22  C23 LIG d          89.142 172.797  68.243  0.00  0.00     0.034 C 
ATOM     23  C24 LIG d          89.643 172.845  70.669  0.00  0.00     0.034 C 
ENDROOT
BRANCH   6  24
ATOM     24  C13 LIG d          84.702 169.000  75.840  0.00  0.00    -0.008 C 
ATOM     25  C22 LIG d          85.386 169.795  76.957  0.00  0.00     0.015 C 
BRANCH  24  26
ATOM     26  C21 LIG d          84.677 167.484  76.140  0.00  0.00     0.008 C 
BRANCH  26  27
ATOM     27  C25 LIG d          83.298 166.816  76.064  0.00  0.00     0.049 C 
BRANCH  27  28
ATOM     28  C26 LIG d          83.371 165.381  75.621  0.00  0.00    -0.055 C 
ATOM     29  C27 LIG d          83.053 164.860  74.421  0.00  0.00    -0.124 C 
ATOM     30  C29 LIG d          83.204 163.382  74.172  0.00  0.00     0.063 C 
ATOM     31  C28 LIG d          82.539 165.633  73.240  0.00  0.00     0.063 C 
ENDBRANCH  27  28
ENDBRANCH  26  27
ENDBRANCH  24  26
ENDBRANCH   6  24
BRANCH  21  32
ATOM     32  O1  LIG d          87.730 175.271  68.461  0.00  0.00    -0.596 OA
ATOM     33  H40 LIG d          86.843 175.507  68.780  0.00  0.00     0.401 HD
ENDBRANCH  21  32
TORSDOF 5
ENDMDL
MODEL 6
REMARK VINA RESULT:      -9.6      2.679      8.394
REMARK  5 active torsions:
REMARK  status: ('A' for Active; 'I' for Inactive)
REMARK    1  A    between atoms: O1_2  and  C20_23 
REMARK    2  A    between atoms: C4_7  and  C13_16 
REMARK    3  A    between atoms: C13_16  and  C21_24 
REMARK    4  A    between atoms: C21_24  and  C25_28 
REMARK    5  A    between atoms: C25_28  and  C26_29 
ROOT
ATOM      1  O   LIG d          84.445 174.066  73.502  0.00  0.00    -0.544 OA
ATOM      2  C   LIG d          85.454 170.213  72.254  0.00  0.00    -0.045 C 
ATOM      3  C1  LIG d          84.795 170.556  73.640  0.00  0.00    -0.036 C 
ATOM      4  C2  LIG d          84.913 171.210  71.183  0.00  0.00     0.015 C 
ATOM      5  C3  LIG d          85.095 172.731  71.560  0.00  0.00    -0.117 C 
ATOM      6  C4  LIG d          85.243 169.343  74.493  0.00  0.00    -0.001 C 
ATOM      7  C5  LIG d          85.006 168.742  72.092  0.00  0.00     0.013 C 
ATOM      8  C6  LIG d          85.294 171.924  74.095  0.00  0.00    -0.019 C 
ATOM      9  C7  LIG d          85.075 168.149  73.520  0.00  0.00     0.012 C 
ATOM     10  C8  LIG d          86.530 173.291  71.198  0.00  0.00     0.044 C 
ATOM     11  C9  LIG d          84.877 172.987  73.084  0.00  0.00     0.572 C 
ATOM     12  C10 LIG d          85.377 170.931  69.742  0.00  0.00     0.061 C 
ATOM     13  C11 LIG d          87.012 170.168  72.269  0.00  0.00     0.027 C 
ATOM     14  C12 LIG d          83.230 170.610  73.631  0.00  0.00     0.027 C 
ATOM     15  C14 LIG d          87.204 172.657  69.977  0.00  0.00    -0.109 C 
ATOM     16  C15 LIG d          83.977 173.503  70.804  0.00  0.00     0.047 C 
ATOM     17  C16 LIG d          86.545 174.833  71.064  0.00  0.00     0.033 C 
ATOM     18  C17 LIG d          86.634 171.625  69.330  0.00  0.00    -0.037 C 
ATOM     19  C18 LIG d          88.594 173.220  69.586  0.00  0.00    -0.043 C 
ATOM     20  C19 LIG d          87.945 175.386  70.816  0.00  0.00    -0.003 C 
ATOM     21  C20 LIG d          88.564 174.776  69.560  0.00  0.00     0.222 C 
ATOM     22  C23 LIG d          89.114 172.717  68.213  0.00  0.00     0.034 C 
ATOM     23  C24 LIG d          89.625 172.739  70.637  0.00  0.00     0.034 C 
ENDROOT
BRANCH   6  24
ATOM     24  C13 LIG d          84.530 169.118  75.821  0.00  0.00    -0.008 C 
ATOM     25  C22 LIG d          85.425 169.575  76.977  0.00  0.00     0.015 C 
BRANCH  24  26
ATOM     26  C21 LIG d          84.123 167.633  75.955  0.00  0.00     0.008 C 
BRANCH  26  27
ATOM     27  C25 LIG d          84.928 166.814  76.972  0.00  0.00     0.049 C 
BRANCH  27  28
ATOM     28  C26 LIG d          85.411 165.505  76.412  0.00  0.00    -0.055 C 
ATOM     29  C27 LIG d          86.571 165.244  75.780  0.00  0.00    -0.124 C 
ATOM     30  C29 LIG d          86.872 163.849  75.295  0.00  0.00     0.063 C 
ATOM     31  C28 LIG d          87.655 166.242  75.492  0.00  0.00     0.063 C 
ENDBRANCH  27  28
ENDBRANCH  26  27
ENDBRANCH  24  26
ENDBRANCH   6  24
BRANCH  21  32
ATOM     32  O1  LIG d          87.817 175.253  68.438  0.00  0.00    -0.596 OA
ATOM     33  H40 LIG d          88.268 176.045  68.098  0.00  0.00     0.401 HD
ENDBRANCH  21  32
TORSDOF 5
ENDMDL
MODEL 7
REMARK VINA RESULT:      -9.5      2.532      8.050
REMARK  5 active torsions:
REMARK  status: ('A' for Active; 'I' for Inactive)
REMARK    1  A    between atoms: O1_2  and  C20_23 
REMARK    2  A    between atoms: C4_7  and  C13_16 
REMARK    3  A    between atoms: C13_16  and  C21_24 
REMARK    4  A    between atoms: C21_24  and  C25_28 
REMARK    5  A    between atoms: C25_28  and  C26_29 
ROOT
ATOM      1  O   LIG d          87.953 168.188  73.586  0.00  0.00    -0.544 OA
ATOM      2  C   LIG d          83.795 168.548  73.647  0.00  0.00    -0.045 C 
ATOM      3  C1  LIG d          84.575 167.204  73.881  0.00  0.00    -0.036 C 
ATOM      4  C2  LIG d          84.639 169.724  74.229  0.00  0.00     0.015 C 
ATOM      5  C3  LIG d          86.116 169.799  73.679  0.00  0.00    -0.117 C 
ATOM      6  C4  LIG d          83.502 166.161  73.479  0.00  0.00    -0.001 C 
ATOM      7  C5  LIG d          82.475 168.235  74.389  0.00  0.00     0.013 C 
ATOM      8  C6  LIG d          85.847 167.222  73.039  0.00  0.00    -0.019 C 
ATOM      9  C7  LIG d          82.203 166.739  74.095  0.00  0.00     0.012 C 
ATOM     10  C8  LIG d          86.223 170.553  72.293  0.00  0.00     0.044 C 
ATOM     11  C9  LIG d          86.738 168.381  73.477  0.00  0.00     0.572 C 
ATOM     12  C10 LIG d          83.954 171.102  74.182  0.00  0.00     0.061 C 
ATOM     13  C11 LIG d          83.381 168.810  72.166  0.00  0.00     0.027 C 
ATOM     14  C12 LIG d          85.001 166.937  75.363  0.00  0.00     0.027 C 
ATOM     15  C14 LIG d          85.198 171.668  72.060  0.00  0.00    -0.109 C 
ATOM     16  C15 LIG d          86.953 170.511  74.780  0.00  0.00     0.047 C 
ATOM     17  C16 LIG d          87.650 171.086  72.020  0.00  0.00     0.033 C 
ATOM     18  C17 LIG d          84.220 171.906  72.952  0.00  0.00    -0.037 C 
ATOM     19  C18 LIG d          85.314 172.443  70.722  0.00  0.00    -0.043 C 
ATOM     20  C19 LIG d          87.784 171.725  70.641  0.00  0.00    -0.003 C 
ATOM     21  C20 LIG d          86.788 172.869  70.464  0.00  0.00     0.222 C 
ATOM     22  C23 LIG d          84.418 173.708  70.648  0.00  0.00     0.034 C 
ATOM     23  C24 LIG d          84.836 171.512  69.581  0.00  0.00     0.034 C 
ENDROOT
BRANCH   6  24
ATOM     24  C13 LIG d          83.745 164.712  73.885  0.00  0.00    -0.008 C 
ATOM     25  C22 LIG d          83.273 164.489  75.325  0.00  0.00     0.015 C 
BRANCH  24  26
ATOM     26  C21 LIG d          85.239 164.359  73.703  0.00  0.00     0.008 C 
BRANCH  26  27
ATOM     27  C25 LIG d          85.864 163.523  74.828  0.00  0.00     0.049 C 
BRANCH  27  28
ATOM     28  C26 LIG d          87.127 164.132  75.371  0.00  0.00    -0.055 C 
ATOM     29  C27 LIG d          87.284 164.887  76.475  0.00  0.00    -0.124 C 
ATOM     30  C29 LIG d          88.648 165.402  76.854  0.00  0.00     0.063 C 
ATOM     31  C28 LIG d          86.189 165.292  77.420  0.00  0.00     0.063 C 
ENDBRANCH  27  28
ENDBRANCH  26  27
ENDBRANCH  24  26
ENDBRANCH   6  24
BRANCH  21  32
ATOM     32  O1  LIG d          87.179 173.919  71.353  0.00  0.00    -0.596 OA
ATOM     33  H40 LIG d          86.424 174.524  71.445  0.00  0.00     0.401 HD
ENDBRANCH  21  32
TORSDOF 5
ENDMDL
MODEL 8
REMARK VINA RESULT:      -9.3      2.497      3.117
REMARK  5 active torsions:
REMARK  status: ('A' for Active; 'I' for Inactive)
REMARK    1  A    between atoms: O1_2  and  C20_23 
REMARK    2  A    between atoms: C4_7  and  C13_16 
REMARK    3  A    between atoms: C13_16  and  C21_24 
REMARK    4  A    between atoms: C21_24  and  C25_28 
REMARK    5  A    between atoms: C25_28  and  C26_29 
ROOT
ATOM      1  O   LIG d          83.364 169.671  74.559  0.00  0.00    -0.544 OA
ATOM      2  C   LIG d          87.296 169.941  73.185  0.00  0.00    -0.045 C 
ATOM      3  C1  LIG d          86.065 170.639  72.502  0.00  0.00    -0.036 C 
ATOM      4  C2  LIG d          87.061 169.911  74.727  0.00  0.00     0.015 C 
ATOM      5  C3  LIG d          85.695 169.253  75.164  0.00  0.00    -0.117 C 
ATOM      6  C4  LIG d          86.580 170.798  71.049  0.00  0.00    -0.001 C 
ATOM      7  C5  LIG d          88.440 170.858  72.697  0.00  0.00     0.013 C 
ATOM      8  C6  LIG d          84.834 169.757  72.690  0.00  0.00    -0.019 C 
ATOM      9  C7  LIG d          88.054 171.231  71.245  0.00  0.00     0.012 C 
ATOM     10  C8  LIG d          85.770 167.676  75.255  0.00  0.00     0.044 C 
ATOM     11  C9  LIG d          84.536 169.599  74.177  0.00  0.00     0.572 C 
ATOM     12  C10 LIG d          88.237 169.361  75.554  0.00  0.00     0.061 C 
ATOM     13  C11 LIG d          87.636 168.526  72.624  0.00  0.00     0.027 C 
ATOM     14  C12 LIG d          85.713 172.056  73.065  0.00  0.00     0.027 C 
ATOM     15  C14 LIG d          87.131 167.094  75.653  0.00  0.00    -0.109 C 
ATOM     16  C15 LIG d          85.328 169.885  76.537  0.00  0.00     0.047 C 
ATOM     17  C16 LIG d          84.661 167.084  76.160  0.00  0.00     0.033 C 
ATOM     18  C17 LIG d          88.202 167.890  75.815  0.00  0.00    -0.037 C 
ATOM     19  C18 LIG d          87.210 165.552  75.784  0.00  0.00    -0.043 C 
ATOM     20  C19 LIG d          84.666 165.558  76.170  0.00  0.00    -0.003 C 
ATOM     21  C20 LIG d          86.017 165.014  76.626  0.00  0.00     0.222 C 
ATOM     22  C23 LIG d          88.530 165.042  76.422  0.00  0.00     0.034 C 
ATOM     23  C24 LIG d          87.157 164.941  74.362  0.00  0.00     0.034 C 
ENDROOT
BRANCH   6  24
ATOM     24  C13 LIG d          85.811 171.741  70.132  0.00  0.00    -0.008 C 
ATOM     25  C22 LIG d          85.937 171.274  68.679  0.00  0.00     0.015 C 
BRANCH  24  26
ATOM     26  C21 LIG d          86.317 173.189  70.322  0.00  0.00     0.008 C 
BRANCH  26  27
ATOM     27  C25 LIG d          85.248 174.220  70.708  0.00  0.00     0.049 C 
BRANCH  27  28
ATOM     28  C26 LIG d          85.793 175.619  70.791  0.00  0.00    -0.055 C 
ATOM     29  C27 LIG d          85.566 176.550  71.736  0.00  0.00    -0.124 C 
ATOM     30  C29 LIG d          86.220 177.904  71.640  0.00  0.00     0.063 C 
ATOM     31  C28 LIG d          84.687 176.376  72.941  0.00  0.00     0.063 C 
ENDBRANCH  27  28
ENDBRANCH  26  27
ENDBRANCH  24  26
ENDBRANCH   6  24
BRANCH  21  32
ATOM     32  O1  LIG d          86.173 165.353  78.007  0.00  0.00    -0.596 OA
ATOM     33  H40 LIG d          86.821 166.076  78.062  0.00  0.00     0.401 HD
ENDBRANCH  21  32
TORSDOF 5
ENDMDL
MODEL 9
REMARK VINA RESULT:      -9.0      2.904      8.243
REMARK  5 active torsions:
REMARK  status: ('A' for Active; 'I' for Inactive)
REMARK    1  A    between atoms: O1_2  and  C20_23 
REMARK    2  A    between atoms: C4_7  and  C13_16 
REMARK    3  A    between atoms: C13_16  and  C21_24 
REMARK    4  A    between atoms: C21_24  and  C25_28 
REMARK    5  A    between atoms: C25_28  and  C26_29 
ROOT
ATOM      1  O   LIG d          89.178 168.046  72.649  0.00  0.00    -0.544 OA
ATOM      2  C   LIG d          86.060 168.299  75.411  0.00  0.00    -0.045 C 
ATOM      3  C1  LIG d          86.871 166.989  75.103  0.00  0.00    -0.036 C 
ATOM      4  C2  LIG d          87.017 169.524  75.275  0.00  0.00     0.015 C 
ATOM      5  C3  LIG d          87.769 169.610  73.891  0.00  0.00    -0.117 C 
ATOM      6  C4  LIG d          85.852 165.900  75.524  0.00  0.00    -0.001 C 
ATOM      7  C5  LIG d          85.565 167.988  76.842  0.00  0.00     0.013 C 
ATOM      8  C6  LIG d          87.281 166.999  73.634  0.00  0.00    -0.019 C 
ATOM      9  C7  LIG d          85.244 166.473  76.828  0.00  0.00     0.012 C 
ATOM     10  C8  LIG d          86.905 170.298  72.759  0.00  0.00     0.044 C 
ATOM     11  C9  LIG d          88.180 168.201  73.358  0.00  0.00     0.572 C 
ATOM     12  C10 LIG d          86.398 170.879  75.661  0.00  0.00     0.061 C 
ATOM     13  C11 LIG d          84.766 168.478  74.559  0.00  0.00     0.027 C 
ATOM     14  C12 LIG d          88.175 166.806  75.949  0.00  0.00     0.027 C 
ATOM     15  C14 LIG d          85.921 171.374  73.232  0.00  0.00    -0.109 C 
ATOM     16  C15 LIG d          89.084 170.396  74.159  0.00  0.00     0.047 C 
ATOM     17  C16 LIG d          87.777 170.855  71.607  0.00  0.00     0.033 C 
ATOM     18  C17 LIG d          85.753 171.629  74.542  0.00  0.00    -0.037 C 
ATOM     19  C18 LIG d          85.095 172.085  72.131  0.00  0.00    -0.043 C 
ATOM     20  C19 LIG d          86.943 171.429  70.465  0.00  0.00    -0.003 C 
ATOM     21  C20 LIG d          86.017 172.536  70.962  0.00  0.00     0.222 C 
ATOM     22  C23 LIG d          84.304 173.321  72.637  0.00  0.00     0.034 C 
ATOM     23  C24 LIG d          84.036 171.088  71.600  0.00  0.00     0.034 C 
ENDROOT
BRANCH   6  24
ATOM     24  C13 LIG d          86.376 164.480  75.699  0.00  0.00    -0.008 C 
ATOM     25  C22 LIG d          87.830 164.517  76.181  0.00  0.00     0.015 C 
BRANCH  24  26
ATOM     26  C21 LIG d          86.223 163.695  74.377  0.00  0.00     0.008 C 
BRANCH  26  27
ATOM     27  C25 LIG d          84.911 162.917  74.216  0.00  0.00     0.049 C 
BRANCH  27  28
ATOM     28  C26 LIG d          83.904 163.644  73.368  0.00  0.00    -0.055 C 
ATOM     29  C27 LIG d          82.950 164.509  73.761  0.00  0.00    -0.124 C 
ATOM     30  C29 LIG d          82.036 165.142  72.744  0.00  0.00     0.063 C 
ATOM     31  C28 LIG d          82.684 164.935  75.176  0.00  0.00     0.063 C 
ENDBRANCH  27  28
ENDBRANCH  26  27
ENDBRANCH  24  26
ENDBRANCH   6  24
BRANCH  21  32
ATOM     32  O1  LIG d          86.839 173.639  71.357  0.00  0.00    -0.596 OA
ATOM     33  H40 LIG d          86.676 174.366  70.733  0.00  0.00     0.401 HD
ENDBRANCH  21  32
TORSDOF 5
ENDMDL
