MODEL 1
REMARK VINA RESULT:     -11.2      0.000      0.000
REMARK  5 active torsions:
REMARK  status: ('A' for Active; 'I' for Inactive)
REMARK    1  A    between atoms: O1_2  and  C20_23 
REMARK    2  A    between atoms: C4_7  and  C13_16 
REMARK    3  A    between atoms: C13_16  and  C21_24 
REMARK    4  A    between atoms: C21_24  and  C25_28 
REMARK    5  A    between atoms: C25_28  and  C26_29 
ROOT
ATOM      1  O   LIG d          84.058 171.360  74.931  0.00  0.00    -0.544 OA
ATOM      2  C   LIG d          87.656 170.357  73.069  0.00  0.00    -0.045 C 
ATOM      3  C1  LIG d          86.677 171.479  72.567  0.00  0.00    -0.036 C 
ATOM      4  C2  LIG d          87.601 170.306  74.628  0.00  0.00     0.015 C 
ATOM      5  C3  LIG d          86.149 170.128  75.221  0.00  0.00    -0.117 C 
ATOM      6  C4  LIG d          87.049 171.549  71.064  0.00  0.00    -0.001 C 
ATOM      7  C5  LIG d          88.986 170.856  72.460  0.00  0.00     0.013 C 
ATOM      8  C6  LIG d          85.246 171.062  72.890  0.00  0.00    -0.019 C 
ATOM      9  C7  LIG d          88.594 171.436  71.079  0.00  0.00     0.012 C 
ATOM     10  C8  LIG d          85.679 168.619  75.264  0.00  0.00     0.044 C 
ATOM     11  C9  LIG d          85.081 170.916  74.400  0.00  0.00     0.572 C 
ATOM     12  C10 LIG d          88.596 169.331  75.283  0.00  0.00     0.061 C 
ATOM     13  C11 LIG d          87.416 168.952  72.435  0.00  0.00     0.027 C 
ATOM     14  C12 LIG d          86.907 172.890  73.204  0.00  0.00     0.027 C 
ATOM     15  C14 LIG d          86.787 167.580  75.469  0.00  0.00    -0.109 C 
ATOM     16  C15 LIG d          86.182 170.754  76.644  0.00  0.00     0.047 C 
ATOM     17  C16 LIG d          84.543 168.384  76.288  0.00  0.00     0.033 C 
ATOM     18  C17 LIG d          88.080 167.948  75.510  0.00  0.00    -0.037 C 
ATOM     19  C18 LIG d          86.338 166.099  75.552  0.00  0.00    -0.043 C 
ATOM     20  C19 LIG d          84.016 166.952  76.262  0.00  0.00    -0.003 C 
ATOM     21  C20 LIG d          85.135 165.948  76.527  0.00  0.00     0.222 C 
ATOM     22  C23 LIG d          87.459 165.126  76.001  0.00  0.00     0.034 C 
ATOM     23  C24 LIG d          85.916 165.641  74.133  0.00  0.00     0.034 C 
ENDROOT
BRANCH   6  24
ATOM     24  C13 LIG d          86.559 172.758  70.277  0.00  0.00    -0.008 C 
ATOM     25  C22 LIG d          85.470 172.331  69.288  0.00  0.00     0.015 C 
BRANCH  24  26
ATOM     26  C21 LIG d          87.750 173.442  69.568  0.00  0.00     0.008 C 
BRANCH  26  27
ATOM     27  C25 LIG d          87.456 174.819  68.958  0.00  0.00     0.049 C 
BRANCH  27  28
ATOM     28  C26 LIG d          88.692 175.662  68.805  0.00  0.00    -0.055 C 
ATOM     29  C27 LIG d          89.395 175.919  67.686  0.00  0.00    -0.124 C 
ATOM     30  C28 LIG d          89.080 175.395  66.315  0.00  0.00     0.063 C 
ATOM     31  C29 LIG d          90.614 176.803  67.743  0.00  0.00     0.063 C 
ENDBRANCH  27  28
ENDBRANCH  26  27
ENDBRANCH  24  26
ENDBRANCH   6  24
BRANCH  21  32
ATOM     32  O1  LIG d          85.553 166.119  77.884  0.00  0.00    -0.596 OA
ATOM     33  H40 LIG d          85.797 165.245  78.231  0.00  0.00     0.401 HD
ENDBRANCH  21  32
TORSDOF 5
ENDMDL
MODEL 2
REMARK VINA RESULT:     -11.2      1.266      1.934
REMARK  5 active torsions:
REMARK  status: ('A' for Active; 'I' for Inactive)
REMARK    1  A    between atoms: O1_2  and  C20_23 
REMARK    2  A    between atoms: C4_7  and  C13_16 
REMARK    3  A    between atoms: C13_16  and  C21_24 
REMARK    4  A    between atoms: C21_24  and  C25_28 
REMARK    5  A    between atoms: C25_28  and  C26_29 
ROOT
ATOM      1  O   LIG d          83.957 171.291  75.006  0.00  0.00    -0.544 OA
ATOM      2  C   LIG d          87.517 170.340  73.045  0.00  0.00    -0.045 C 
ATOM      3  C1  LIG d          86.510 171.450  72.571  0.00  0.00    -0.036 C 
ATOM      4  C2  LIG d          87.505 170.286  74.604  0.00  0.00     0.015 C 
ATOM      5  C3  LIG d          86.072 170.088  75.236  0.00  0.00    -0.117 C 
ATOM      6  C4  LIG d          86.839 171.527  71.059  0.00  0.00    -0.001 C 
ATOM      7  C5  LIG d          88.823 170.859  72.400  0.00  0.00     0.013 C 
ATOM      8  C6  LIG d          85.093 171.013  72.933  0.00  0.00    -0.019 C 
ATOM      9  C7  LIG d          88.385 171.436  71.032  0.00  0.00     0.012 C 
ATOM     10  C8  LIG d          85.624 168.572  75.289  0.00  0.00     0.044 C 
ATOM     11  C9  LIG d          84.971 170.862  74.446  0.00  0.00     0.572 C 
ATOM     12  C10 LIG d          88.531 169.324  75.230  0.00  0.00     0.061 C 
ATOM     13  C11 LIG d          87.279 168.934  72.415  0.00  0.00     0.027 C 
ATOM     14  C12 LIG d          86.737 172.863  73.205  0.00  0.00     0.027 C 
ATOM     15  C14 LIG d          86.751 167.548  75.462  0.00  0.00    -0.109 C 
ATOM     16  C15 LIG d          86.136 170.711  76.659  0.00  0.00     0.047 C 
ATOM     17  C16 LIG d          84.520 168.320  76.344  0.00  0.00     0.033 C 
ATOM     18  C17 LIG d          88.040 167.934  75.469  0.00  0.00    -0.037 C 
ATOM     19  C18 LIG d          86.325 166.061  75.554  0.00  0.00    -0.043 C 
ATOM     20  C19 LIG d          84.012 166.881  76.328  0.00  0.00    -0.003 C 
ATOM     21  C20 LIG d          85.151 165.891  76.561  0.00  0.00     0.222 C 
ATOM     22  C23 LIG d          87.472 165.102  75.971  0.00  0.00     0.034 C 
ATOM     23  C24 LIG d          85.871 165.599  74.147  0.00  0.00     0.034 C 
ENDROOT
BRANCH   6  24
ATOM     24  C13 LIG d          86.312 172.731  70.288  0.00  0.00    -0.008 C 
ATOM     25  C22 LIG d          85.360 172.265  69.181  0.00  0.00     0.015 C 
BRANCH  24  26
ATOM     26  C21 LIG d          87.492 173.556  69.728  0.00  0.00     0.008 C 
BRANCH  26  27
ATOM     27  C25 LIG d          87.344 175.080  69.831  0.00  0.00     0.049 C 
BRANCH  27  28
ATOM     28  C26 LIG d          86.528 175.505  71.020  0.00  0.00    -0.055 C 
ATOM     29  C27 LIG d          86.185 176.751  71.396  0.00  0.00    -0.124 C 
ATOM     30  C28 LIG d          86.564 178.016  70.681  0.00  0.00     0.063 C 
ATOM     31  C29 LIG d          85.347 176.967  72.630  0.00  0.00     0.063 C 
ENDBRANCH  27  28
ENDBRANCH  26  27
ENDBRANCH  24  26
ENDBRANCH   6  24
BRANCH  21  32
ATOM     32  O1  LIG d          85.604 166.067  77.906  0.00  0.00    -0.596 OA
ATOM     33  H40 LIG d          85.226 165.349  78.441  0.00  0.00     0.401 HD
ENDBRANCH  21  32
TORSDOF 5
ENDMDL
MODEL 3
REMARK VINA RESULT:     -11.1      1.608      2.241
REMARK  5 active torsions:
REMARK  status: ('A' for Active; 'I' for Inactive)
REMARK    1  A    between atoms: O1_2  and  C20_23 
REMARK    2  A    between atoms: C4_7  and  C13_16 
REMARK    3  A    between atoms: C13_16  and  C21_24 
REMARK    4  A    between atoms: C21_24  and  C25_28 
REMARK    5  A    between atoms: C25_28  and  C26_29 
ROOT
ATOM      1  O   LIG d          83.768 171.324  71.746  0.00  0.00    -0.544 OA
ATOM      2  C   LIG d          87.547 170.841  73.451  0.00  0.00    -0.045 C 
ATOM      3  C1  LIG d          87.274 171.566  72.084  0.00  0.00    -0.036 C 
ATOM      4  C2  LIG d          86.343 171.106  74.407  0.00  0.00     0.015 C 
ATOM      5  C3  LIG d          84.937 170.715  73.805  0.00  0.00    -0.117 C 
ATOM      6  C4  LIG d          88.646 171.406  71.381  0.00  0.00    -0.001 C 
ATOM      7  C5  LIG d          88.884 171.505  73.854  0.00  0.00     0.013 C 
ATOM      8  C6  LIG d          86.084 170.897  71.403  0.00  0.00    -0.019 C 
ATOM      9  C7  LIG d          89.658 171.672  72.524  0.00  0.00     0.012 C 
ATOM     10  C8  LIG d          84.595 169.181  73.977  0.00  0.00     0.044 C 
ATOM     11  C9  LIG d          84.844 171.036  72.280  0.00  0.00     0.572 C 
ATOM     12  C10 LIG d          86.512 170.557  75.835  0.00  0.00     0.061 C 
ATOM     13  C11 LIG d          87.865 169.319  73.328  0.00  0.00     0.027 C 
ATOM     14  C12 LIG d          86.947 173.092  72.199  0.00  0.00     0.027 C 
ATOM     15  C14 LIG d          85.177 168.503  75.223  0.00  0.00    -0.109 C 
ATOM     16  C15 LIG d          83.892 171.615  74.524  0.00  0.00     0.047 C 
ATOM     17  C16 LIG d          83.076 168.901  73.889  0.00  0.00     0.033 C 
ATOM     18  C17 LIG d          86.002 169.170  76.051  0.00  0.00    -0.037 C 
ATOM     19  C18 LIG d          84.819 167.009  75.427  0.00  0.00    -0.043 C 
ATOM     20  C19 LIG d          82.749 167.412  73.953  0.00  0.00    -0.003 C 
ATOM     21  C20 LIG d          83.292 166.783  75.233  0.00  0.00     0.222 C 
ATOM     22  C23 LIG d          85.226 166.448  76.815  0.00  0.00     0.034 C 
ATOM     23  C24 LIG d          85.603 166.177  74.382  0.00  0.00     0.034 C 
ENDROOT
BRANCH   6  24
ATOM     24  C13 LIG d          88.910 172.272  70.155  0.00  0.00    -0.008 C 
ATOM     25  C22 LIG d          88.698 171.448  68.881  0.00  0.00     0.015 C 
BRANCH  24  26
ATOM     26  C21 LIG d          90.334 172.868  70.229  0.00  0.00     0.008 C 
BRANCH  26  27
ATOM     27  C25 LIG d          90.441 174.368  69.918  0.00  0.00     0.049 C 
BRANCH  27  28
ATOM     28  C26 LIG d          90.265 174.672  68.456  0.00  0.00    -0.055 C 
ATOM     29  C27 LIG d          89.167 175.126  67.823  0.00  0.00    -0.124 C 
ATOM     30  C28 LIG d          87.846 175.428  68.470  0.00  0.00     0.063 C 
ATOM     31  C29 LIG d          89.199 175.376  66.337  0.00  0.00     0.063 C 
ENDBRANCH  27  28
ENDBRANCH  26  27
ENDBRANCH  24  26
ENDBRANCH   6  24
BRANCH  21  32
ATOM     32  O1  LIG d          82.552 167.330  76.328  0.00  0.00    -0.596 OA
ATOM     33  H40 LIG d          81.622 167.070  76.216  0.00  0.00     0.401 HD
ENDBRANCH  21  32
TORSDOF 5
ENDMDL
MODEL 4
REMARK VINA RESULT:     -11.1      1.054      1.148
REMARK  5 active torsions:
REMARK  status: ('A' for Active; 'I' for Inactive)
REMARK    1  A    between atoms: O1_2  and  C20_23 
REMARK    2  A    between atoms: C4_7  and  C13_16 
REMARK    3  A    between atoms: C13_16  and  C21_24 
REMARK    4  A    between atoms: C21_24  and  C25_28 
REMARK    5  A    between atoms: C25_28  and  C26_29 
ROOT
ATOM      1  O   LIG d          83.889 171.371  74.545  0.00  0.00    -0.544 OA
ATOM      2  C   LIG d          87.712 170.218  73.331  0.00  0.00    -0.045 C 
ATOM      3  C1  LIG d          87.006 171.553  72.897  0.00  0.00    -0.036 C 
ATOM      4  C2  LIG d          87.271 169.870  74.787  0.00  0.00     0.015 C 
ATOM      5  C3  LIG d          85.709 169.802  74.994  0.00  0.00    -0.117 C 
ATOM      6  C4  LIG d          87.739 171.860  71.566  0.00  0.00    -0.001 C 
ATOM      7  C5  LIG d          89.195 170.619  73.155  0.00  0.00     0.013 C 
ATOM      8  C6  LIG d          85.504 171.303  72.798  0.00  0.00    -0.019 C 
ATOM      9  C7  LIG d          89.214 171.512  71.891  0.00  0.00     0.012 C 
ATOM     10  C8  LIG d          85.091 168.404  74.590  0.00  0.00     0.044 C 
ATOM     11  C9  LIG d          84.960 170.890  74.162  0.00  0.00     0.572 C 
ATOM     12  C10 LIG d          87.971 168.645  75.404  0.00  0.00     0.061 C 
ATOM     13  C11 LIG d          87.493 169.019  72.358  0.00  0.00     0.027 C 
ATOM     14  C12 LIG d          87.215 172.759  73.872  0.00  0.00     0.027 C 
ATOM     15  C14 LIG d          86.003 167.189  74.790  0.00  0.00    -0.109 C 
ATOM     16  C15 LIG d          85.456 170.123  76.495  0.00  0.00     0.047 C 
ATOM     17  C16 LIG d          83.720 168.148  75.263  0.00  0.00     0.033 C 
ATOM     18  C17 LIG d          87.277 167.340  75.193  0.00  0.00    -0.037 C 
ATOM     19  C18 LIG d          85.399 165.806  74.434  0.00  0.00    -0.043 C 
ATOM     20  C19 LIG d          83.073 166.846  74.797  0.00  0.00    -0.003 C 
ATOM     21  C20 LIG d          83.984 165.651  75.064  0.00  0.00     0.222 C 
ATOM     22  C23 LIG d          86.271 164.604  74.884  0.00  0.00     0.034 C 
ATOM     23  C24 LIG d          85.293 165.706  72.892  0.00  0.00     0.034 C 
ENDROOT
BRANCH   6  24
ATOM     24  C13 LIG d          87.583 173.261  70.988  0.00  0.00    -0.008 C 
ATOM     25  C22 LIG d          86.635 173.225  69.786  0.00  0.00     0.015 C 
BRANCH  24  26
ATOM     26  C21 LIG d          88.970 173.834  70.616  0.00  0.00     0.008 C 
BRANCH  26  27
ATOM     27  C25 LIG d          89.239 173.993  69.113  0.00  0.00     0.049 C 
BRANCH  27  28
ATOM     28  C26 LIG d          89.758 175.359  68.758  0.00  0.00    -0.055 C 
ATOM     29  C27 LIG d          89.720 175.984  67.567  0.00  0.00    -0.124 C 
ATOM     30  C28 LIG d          89.135 175.423  66.303  0.00  0.00     0.063 C 
ATOM     31  C29 LIG d          90.295 177.369  67.418  0.00  0.00     0.063 C 
ENDBRANCH  27  28
ENDBRANCH  26  27
ENDBRANCH  24  26
ENDBRANCH   6  24
BRANCH  21  32
ATOM     32  O1  LIG d          84.073 165.486  76.482  0.00  0.00    -0.596 OA
ATOM     33  H40 LIG d          83.245 165.077  76.784  0.00  0.00     0.401 HD
ENDBRANCH  21  32
TORSDOF 5
ENDMDL
MODEL 5
REMARK VINA RESULT:     -10.7      2.257      8.384
REMARK  5 active torsions:
REMARK  status: ('A' for Active; 'I' for Inactive)
REMARK    1  A    between atoms: O1_2  and  C20_23 
REMARK    2  A    between atoms: C4_7  and  C13_16 
REMARK    3  A    between atoms: C13_16  and  C21_24 
REMARK    4  A    between atoms: C21_24  and  C25_28 
REMARK    5  A    between atoms: C25_28  and  C26_29 
ROOT
ATOM      1  O   LIG d          88.802 169.362  73.446  0.00  0.00    -0.544 OA
ATOM      2  C   LIG d          84.841 170.659  73.224  0.00  0.00    -0.045 C 
ATOM      3  C1  LIG d          85.281 169.217  73.668  0.00  0.00    -0.036 C 
ATOM      4  C2  LIG d          85.919 171.681  73.702  0.00  0.00     0.015 C 
ATOM      5  C3  LIG d          87.387 171.344  73.233  0.00  0.00    -0.117 C 
ATOM      6  C4  LIG d          84.006 168.400  73.339  0.00  0.00    -0.001 C 
ATOM      7  C5  LIG d          83.465 170.756  73.923  0.00  0.00     0.013 C 
ATOM      8  C6  LIG d          86.545 168.833  72.904  0.00  0.00    -0.019 C 
ATOM      9  C7  LIG d          82.861 169.335  73.802  0.00  0.00     0.012 C 
ATOM     10  C8  LIG d          87.703 171.861  71.772  0.00  0.00     0.044 C 
ATOM     11  C9  LIG d          87.668 169.808  73.245  0.00  0.00     0.572 C 
ATOM     12  C10 LIG d          85.574 173.159  73.445  0.00  0.00     0.061 C 
ATOM     13  C11 LIG d          84.539 170.807  71.701  0.00  0.00     0.027 C 
ATOM     14  C12 LIG d          85.593 169.062  75.194  0.00  0.00     0.027 C 
ATOM     15  C14 LIG d          86.972 173.138  71.343  0.00  0.00    -0.109 C 
ATOM     16  C15 LIG d          88.337 171.989  74.282  0.00  0.00     0.047 C 
ATOM     17  C16 LIG d          89.222 172.015  71.517  0.00  0.00     0.033 C 
ATOM     18  C17 LIG d          86.052 173.709  72.141  0.00  0.00    -0.037 C 
ATOM     19  C18 LIG d          87.300 173.679  69.928  0.00  0.00    -0.043 C 
ATOM     20  C19 LIG d          89.537 172.415  70.078  0.00  0.00    -0.003 C 
ATOM     21  C20 LIG d          88.839 173.721  69.704  0.00  0.00     0.222 C 
ATOM     22  C23 LIG d          86.725 175.092  69.646  0.00  0.00     0.034 C 
ATOM     23  C24 LIG d          86.650 172.735  68.886  0.00  0.00     0.034 C 
ENDROOT
BRANCH   6  24
ATOM     24  C13 LIG d          83.896 167.002  73.935  0.00  0.00    -0.008 C 
ATOM     25  C22 LIG d          83.207 166.064  72.940  0.00  0.00     0.015 C 
BRANCH  24  26
ATOM     26  C21 LIG d          83.149 167.064  75.287  0.00  0.00     0.008 C 
BRANCH  26  27
ATOM     27  C25 LIG d          83.499 165.956  76.289  0.00  0.00     0.049 C 
BRANCH  27  28
ATOM     28  C26 LIG d          84.956 165.949  76.662  0.00  0.00    -0.055 C 
ATOM     29  C27 LIG d          85.958 165.245  76.103  0.00  0.00    -0.124 C 
ATOM     30  C28 LIG d          85.821 164.287  74.955  0.00  0.00     0.063 C 
ATOM     31  C29 LIG d          87.365 165.385  76.624  0.00  0.00     0.063 C 
ENDBRANCH  27  28
ENDBRANCH  26  27
ENDBRANCH  24  26
ENDBRANCH   6  24
BRANCH  21  32
ATOM     32  O1  LIG d          89.439 174.765  70.476  0.00  0.00    -0.596 OA
ATOM     33  H40 LIG d          90.331 174.472  70.727  0.00  0.00     0.401 HD
ENDBRANCH  21  32
TORSDOF 5
ENDMDL
MODEL 6
REMARK VINA RESULT:     -10.7      2.455      8.161
REMARK  5 active torsions:
REMARK  status: ('A' for Active; 'I' for Inactive)
REMARK    1  A    between atoms: O1_2  and  C20_23 
REMARK    2  A    between atoms: C4_7  and  C13_16 
REMARK    3  A    between atoms: C13_16  and  C21_24 
REMARK    4  A    between atoms: C21_24  and  C25_28 
REMARK    5  A    between atoms: C25_28  and  C26_29 
ROOT
ATOM      1  O   LIG d          87.617 174.135  74.755  0.00  0.00    -0.544 OA
ATOM      2  C   LIG d          85.338 171.581  72.366  0.00  0.00    -0.045 C 
ATOM      3  C1  LIG d          85.510 171.427  73.921  0.00  0.00    -0.036 C 
ATOM      4  C2  LIG d          85.348 173.100  72.010  0.00  0.00     0.015 C 
ATOM      5  C3  LIG d          86.609 173.884  72.542  0.00  0.00    -0.117 C 
ATOM      6  C4  LIG d          85.230 169.914  74.105  0.00  0.00    -0.001 C 
ATOM      7  C5  LIG d          83.990 170.851  72.164  0.00  0.00     0.013 C 
ATOM      8  C6  LIG d          86.905 171.908  74.310  0.00  0.00    -0.019 C 
ATOM      9  C7  LIG d          84.034 169.661  73.153  0.00  0.00     0.012 C 
ATOM     10  C8  LIG d          87.862 173.763  71.584  0.00  0.00     0.044 C 
ATOM     11  C9  LIG d          87.061 173.382  73.949  0.00  0.00     0.572 C 
ATOM     12  C10 LIG d          85.071 173.423  70.530  0.00  0.00     0.061 C 
ATOM     13  C11 LIG d          86.371 170.780  71.515  0.00  0.00     0.027 C 
ATOM     14  C12 LIG d          84.483 172.234  74.782  0.00  0.00     0.027 C 
ATOM     15  C14 LIG d          87.549 173.620  70.091  0.00  0.00    -0.109 C 
ATOM     16  C15 LIG d          86.162 175.364  72.708  0.00  0.00     0.047 C 
ATOM     17  C16 LIG d          88.882 174.908  71.799  0.00  0.00     0.033 C 
ATOM     18  C17 LIG d          86.280 173.509  69.658  0.00  0.00    -0.037 C 
ATOM     19  C18 LIG d          88.766 173.539  69.135  0.00  0.00    -0.043 C 
ATOM     20  C19 LIG d          90.139 174.741  70.949  0.00  0.00    -0.003 C 
ATOM     21  C20 LIG d          89.794 174.660  69.464  0.00  0.00     0.222 C 
ATOM     22  C23 LIG d          88.394 173.642  67.632  0.00  0.00     0.034 C 
ATOM     23  C24 LIG d          89.434 172.153  69.317  0.00  0.00     0.034 C 
ENDROOT
BRANCH   6  24
ATOM     24  C13 LIG d          84.964 169.418  75.521  0.00  0.00    -0.008 C 
ATOM     25  C22 LIG d          86.288 169.261  76.275  0.00  0.00     0.015 C 
BRANCH  24  26
ATOM     26  C21 LIG d          84.164 168.097  75.474  0.00  0.00     0.008 C 
BRANCH  26  27
ATOM     27  C25 LIG d          85.005 166.814  75.405  0.00  0.00     0.049 C 
BRANCH  27  28
ATOM     28  C26 LIG d          85.193 166.318  73.998  0.00  0.00    -0.055 C 
ATOM     29  C27 LIG d          86.286 166.413  73.218  0.00  0.00    -0.124 C 
ATOM     30  C28 LIG d          87.585 167.059  73.606  0.00  0.00     0.063 C 
ATOM     31  C29 LIG d          86.275 165.839  71.825  0.00  0.00     0.063 C 
ENDBRANCH  27  28
ENDBRANCH  26  27
ENDBRANCH  24  26
ENDBRANCH   6  24
BRANCH  21  32
ATOM     32  O1  LIG d          89.297 175.941  69.068  0.00  0.00    -0.596 OA
ATOM     33  H40 LIG d          90.062 176.520  68.915  0.00  0.00     0.401 HD
ENDBRANCH  21  32
TORSDOF 5
ENDMDL
MODEL 7
REMARK VINA RESULT:     -10.6      3.181      9.006
REMARK  5 active torsions:
REMARK  status: ('A' for Active; 'I' for Inactive)
REMARK    1  A    between atoms: O1_2  and  C20_23 
REMARK    2  A    between atoms: C4_7  and  C13_16 
REMARK    3  A    between atoms: C13_16  and  C21_24 
REMARK    4  A    between atoms: C21_24  and  C25_28 
REMARK    5  A    between atoms: C25_28  and  C26_29 
ROOT
ATOM      1  O   LIG d          87.678 172.050  67.813  0.00  0.00    -0.544 OA
ATOM      2  C   LIG d          87.796 173.170  71.832  0.00  0.00    -0.045 C 
ATOM      3  C1  LIG d          86.729 172.197  71.210  0.00  0.00    -0.036 C 
ATOM      4  C2  LIG d          89.154 172.963  71.090  0.00  0.00     0.015 C 
ATOM      5  C3  LIG d          89.067 173.111  69.522  0.00  0.00    -0.117 C 
ATOM      6  C4  LIG d          85.557 172.361  72.210  0.00  0.00    -0.001 C 
ATOM      7  C5  LIG d          87.760 172.713  73.308  0.00  0.00     0.013 C 
ATOM      8  C6  LIG d          86.455 172.625  69.772  0.00  0.00    -0.019 C 
ATOM      9  C7  LIG d          86.271 172.392  73.585  0.00  0.00     0.012 C 
ATOM     10  C8  LIG d          89.156 174.613  69.036  0.00  0.00     0.044 C 
ATOM     11  C9  LIG d          87.737 172.525  68.951  0.00  0.00     0.572 C 
ATOM     12  C10 LIG d          90.337 173.764  71.663  0.00  0.00     0.061 C 
ATOM     13  C11 LIG d          87.373 174.670  71.855  0.00  0.00     0.027 C 
ATOM     14  C12 LIG d          87.150 170.690  71.175  0.00  0.00     0.027 C 
ATOM     15  C14 LIG d          90.004 175.547  69.908  0.00  0.00    -0.109 C 
ATOM     16  C15 LIG d          90.228 172.256  68.940  0.00  0.00     0.047 C 
ATOM     17  C16 LIG d          89.598 174.730  67.558  0.00  0.00     0.033 C 
ATOM     18  C17 LIG d          90.547 175.113  71.059  0.00  0.00    -0.037 C 
ATOM     19  C18 LIG d          90.133 177.014  69.425  0.00  0.00    -0.043 C 
ATOM     20  C19 LIG d          89.588 176.171  67.055  0.00  0.00    -0.003 C 
ATOM     21  C20 LIG d          90.487 177.060  67.910  0.00  0.00     0.222 C 
ATOM     22  C23 LIG d          91.190 177.841  70.202  0.00  0.00     0.034 C 
ATOM     23  C24 LIG d          88.776 177.723  69.661  0.00  0.00     0.034 C 
ENDROOT
BRANCH   6  24
ATOM     24  C13 LIG d          84.440 171.325  72.156  0.00  0.00    -0.008 C 
ATOM     25  C22 LIG d          83.427 171.708  71.073  0.00  0.00     0.015 C 
BRANCH  24  26
ATOM     26  C21 LIG d          83.780 171.190  73.546  0.00  0.00     0.008 C 
BRANCH  26  27
ATOM     27  C25 LIG d          83.499 169.754  74.010  0.00  0.00     0.049 C 
BRANCH  27  28
ATOM     28  C26 LIG d          84.337 168.736  73.287  0.00  0.00    -0.055 C 
ATOM     29  C27 LIG d          85.589 168.331  73.570  0.00  0.00    -0.124 C 
ATOM     30  C28 LIG d          86.435 168.833  74.704  0.00  0.00     0.063 C 
ATOM     31  C29 LIG d          86.258 167.284  72.718  0.00  0.00     0.063 C 
ENDBRANCH  27  28
ENDBRANCH  26  27
ENDBRANCH  24  26
ENDBRANCH   6  24
BRANCH  21  32
ATOM     32  O1  LIG d          91.838 176.644  67.690  0.00  0.00    -0.596 OA
ATOM     33  H40 LIG d          91.957 176.521  66.733  0.00  0.00     0.401 HD
ENDBRANCH  21  32
TORSDOF 5
ENDMDL
MODEL 8
REMARK VINA RESULT:     -10.6      1.804      2.620
REMARK  5 active torsions:
REMARK  status: ('A' for Active; 'I' for Inactive)
REMARK    1  A    between atoms: O1_2  and  C20_23 
REMARK    2  A    between atoms: C4_7  and  C13_16 
REMARK    3  A    between atoms: C13_16  and  C21_24 
REMARK    4  A    between atoms: C21_24  and  C25_28 
REMARK    5  A    between atoms: C25_28  and  C26_29 
ROOT
ATOM      1  O   LIG d          83.232 171.400  71.282  0.00  0.00    -0.544 OA
ATOM      2  C   LIG d          87.185 172.159  72.386  0.00  0.00    -0.045 C 
ATOM      3  C1  LIG d          86.469 172.802  71.143  0.00  0.00    -0.036 C 
ATOM      4  C2  LIG d          86.133 171.962  73.522  0.00  0.00     0.015 C 
ATOM      5  C3  LIG d          84.856 171.142  73.090  0.00  0.00    -0.117 C 
ATOM      6  C4  LIG d          87.683 173.144  70.243  0.00  0.00    -0.001 C 
ATOM      7  C5  LIG d          88.276 173.219  72.656  0.00  0.00     0.013 C 
ATOM      8  C6  LIG d          85.470 171.797  70.577  0.00  0.00    -0.019 C 
ATOM      9  C7  LIG d          88.724 173.691  71.251  0.00  0.00     0.012 C 
ATOM     10  C8  LIG d          85.070 169.577  73.166  0.00  0.00     0.044 C 
ATOM     11  C9  LIG d          84.414 171.472  71.630  0.00  0.00     0.572 C 
ATOM     12  C10 LIG d          86.705 171.446  74.855  0.00  0.00     0.061 C 
ATOM     13  C11 LIG d          87.960 170.841  72.080  0.00  0.00     0.027 C 
ATOM     14  C12 LIG d          85.682 174.121  71.444  0.00  0.00     0.027 C 
ATOM     15  C14 LIG d          86.037 169.088  74.250  0.00  0.00    -0.109 C 
ATOM     16  C15 LIG d          83.706 171.605  74.029  0.00  0.00     0.047 C 
ATOM     17  C16 LIG d          83.733 168.803  73.268  0.00  0.00     0.033 C 
ATOM     18  C17 LIG d          86.721 169.961  75.011  0.00  0.00    -0.037 C 
ATOM     19  C18 LIG d          86.228 167.554  74.364  0.00  0.00    -0.043 C 
ATOM     20  C19 LIG d          83.928 167.290  73.239  0.00  0.00    -0.003 C 
ATOM     21  C20 LIG d          84.850 166.831  74.367  0.00  0.00     0.222 C 
ATOM     22  C23 LIG d          87.018 167.110  75.623  0.00  0.00     0.034 C 
ATOM     23  C24 LIG d          87.060 167.079  73.146  0.00  0.00     0.034 C 
ENDROOT
BRANCH   6  24
ATOM     24  C13 LIG d          87.444 174.096  69.076  0.00  0.00    -0.008 C 
ATOM     25  C22 LIG d          87.470 173.319  67.757  0.00  0.00     0.015 C 
BRANCH  24  26
ATOM     26  C21 LIG d          88.491 175.232  69.101  0.00  0.00     0.008 C 
BRANCH  26  27
ATOM     27  C25 LIG d          89.522 175.208  67.964  0.00  0.00     0.049 C 
BRANCH  27  28
ATOM     28  C26 LIG d          90.765 175.987  68.292  0.00  0.00    -0.055 C 
ATOM     29  C27 LIG d          91.830 175.596  69.017  0.00  0.00    -0.124 C 
ATOM     30  C28 LIG d          91.996 174.255  69.674  0.00  0.00     0.063 C 
ATOM     31  C29 LIG d          92.991 176.533  69.226  0.00  0.00     0.063 C 
ENDBRANCH  27  28
ENDBRANCH  26  27
ENDBRANCH  24  26
ENDBRANCH   6  24
BRANCH  21  32
ATOM     32  O1  LIG d          84.161 167.052  75.601  0.00  0.00    -0.596 OA
ATOM     33  H40 LIG d          83.273 166.668  75.516  0.00  0.00     0.401 HD
ENDBRANCH  21  32
TORSDOF 5
ENDMDL
MODEL 9
REMARK VINA RESULT:     -10.5      2.343      8.523
REMARK  5 active torsions:
REMARK  status: ('A' for Active; 'I' for Inactive)
REMARK    1  A    between atoms: O1_2  and  C20_23 
REMARK    2  A    between atoms: C4_7  and  C13_16 
REMARK    3  A    between atoms: C13_16  and  C21_24 
REMARK    4  A    between atoms: C21_24  and  C25_28 
REMARK    5  A    between atoms: C25_28  and  C26_29 
ROOT
ATOM      1  O   LIG d          84.713 173.817  71.506  0.00  0.00    -0.544 OA
ATOM      2  C   LIG d          87.827 171.137  72.243  0.00  0.00    -0.045 C 
ATOM      3  C1  LIG d          86.503 171.217  73.087  0.00  0.00    -0.036 C 
ATOM      4  C2  LIG d          87.494 171.480  70.758  0.00  0.00     0.015 C 
ATOM      5  C3  LIG d          86.753 172.859  70.560  0.00  0.00    -0.117 C 
ATOM      6  C4  LIG d          86.972 170.616  74.437  0.00  0.00    -0.001 C 
ATOM      7  C5  LIG d          88.242 169.673  72.519  0.00  0.00     0.013 C 
ATOM      8  C6  LIG d          86.030 172.667  73.121  0.00  0.00    -0.019 C 
ATOM      9  C7  LIG d          87.866 169.429  74.001  0.00  0.00     0.012 C 
ATOM     10  C8  LIG d          87.743 174.092  70.509  0.00  0.00     0.044 C 
ATOM     11  C9  LIG d          85.729 173.144  71.704  0.00  0.00     0.572 C 
ATOM     12  C10 LIG d          88.671 171.331  69.777  0.00  0.00     0.061 C 
ATOM     13  C11 LIG d          89.000 172.006  72.790  0.00  0.00     0.027 C 
ATOM     14  C12 LIG d          85.318 170.353  72.541  0.00  0.00     0.027 C 
ATOM     15  C14 LIG d          89.131 173.809  69.923  0.00  0.00    -0.109 C 
ATOM     16  C15 LIG d          85.940 172.729  69.241  0.00  0.00     0.047 C 
ATOM     17  C16 LIG d          87.119 175.322  69.807  0.00  0.00     0.033 C 
ATOM     18  C17 LIG d          89.492 172.561  69.572  0.00  0.00    -0.037 C 
ATOM     19  C18 LIG d          90.100 175.015  69.831  0.00  0.00    -0.043 C 
ATOM     20  C19 LIG d          88.031 176.544  69.845  0.00  0.00    -0.003 C 
ATOM     21  C20 LIG d          89.383 176.244  69.202  0.00  0.00     0.222 C 
ATOM     22  C23 LIG d          91.387 174.726  69.013  0.00  0.00     0.034 C 
ATOM     23  C24 LIG d          90.573 175.367  71.263  0.00  0.00     0.034 C 
ENDROOT
BRANCH   6  24
ATOM     24  C13 LIG d          85.894 170.201  75.431  0.00  0.00    -0.008 C 
ATOM     25  C22 LIG d          86.057 170.989  76.735  0.00  0.00     0.015 C 
BRANCH  24  26
ATOM     26  C21 LIG d          85.954 168.675  75.665  0.00  0.00     0.008 C 
BRANCH  26  27
ATOM     27  C25 LIG d          84.771 167.872  75.106  0.00  0.00     0.049 C 
BRANCH  27  28
ATOM     28  C26 LIG d          85.122 166.436  74.832  0.00  0.00    -0.055 C 
ATOM     29  C27 LIG d          85.634 165.900  73.708  0.00  0.00    -0.124 C 
ATOM     30  C28 LIG d          85.967 166.654  72.453  0.00  0.00     0.063 C 
ATOM     31  C29 LIG d          85.924 164.424  73.636  0.00  0.00     0.063 C 
ENDBRANCH  27  28
ENDBRANCH  26  27
ENDBRANCH  24  26
ENDBRANCH   6  24
BRANCH  21  32
ATOM     32  O1  LIG d          89.158 176.043  67.804  0.00  0.00    -0.596 OA
ATOM     33  H40 LIG d          89.415 176.860  67.344  0.00  0.00     0.401 HD
ENDBRANCH  21  32
TORSDOF 5
ENDMDL
