MODEL 1
REMARK VINA RESULT:     -11.2      0.000      0.000
REMARK  5 active torsions:
REMARK  status: ('A' for Active; 'I' for Inactive)
REMARK    1  A    between atoms: O_1  and  C20_22 
REMARK    2  A    between atoms: C4_6  and  C13_15 
REMARK    3  A    between atoms: C13_15  and  C21_23 
REMARK    4  A    between atoms: C21_23  and  C25_27 
REMARK    5  A    between atoms: C25_27  and  C26_28 
ROOT
ATOM      1  O   LIG d          85.775 165.842  78.138  0.00  0.00    -0.597 OA
ATOM      2  H42 LIG d          86.540 166.431  78.033  0.00  0.00     0.399 HD
ENDROOT
BRANCH   1   3
ATOM      3  C20 LIG d          85.143 165.712  76.860  0.00  0.00     0.181 C 
ATOM      4  C18 LIG d          86.195 165.919  75.735  0.00  0.00    -0.040 C 
ATOM      5  C14 LIG d          86.600 167.412  75.636  0.00  0.00    -0.088 C 
ATOM      6  C23 LIG d          87.384 164.960  76.009  0.00  0.00     0.022 C 
ATOM      7  C24 LIG d          85.594 165.489  74.375  0.00  0.00     0.022 C 
ATOM      8  C8  LIG d          85.454 168.432  75.621  0.00  0.00     0.037 C 
ATOM      9  C17 LIG d          87.879 167.805  75.501  0.00  0.00    -0.051 C 
ATOM     10  C3  LIG d          85.888 169.960  75.559  0.00  0.00    -0.023 C 
ATOM     11  C16 LIG d          84.481 168.137  76.791  0.00  0.00     0.033 C 
ATOM     12  C2  LIG d          87.235 170.171  74.754  0.00  0.00     0.011 C 
ATOM     13  C7  LIG d          84.701 170.808  74.968  0.00  0.00     0.004 C 
ATOM     14  C15 LIG d          86.140 170.501  76.999  0.00  0.00     0.016 C 
ATOM     15  C   LIG d          87.051 170.247  73.204  0.00  0.00    -0.038 C 
ATOM     16  C10 LIG d          88.332 169.204  75.234  0.00  0.00     0.054 C 
ATOM     17  C1  LIG d          86.000 171.369  72.868  0.00  0.00    -0.038 C 
ATOM     18  C6  LIG d          88.263 170.763  72.397  0.00  0.00     0.007 C 
ATOM     19  C11 LIG d          86.727 168.848  72.591  0.00  0.00     0.020 C 
ATOM     20  C4  LIG d          86.119 171.438  71.327  0.00  0.00    -0.004 C 
ATOM     21  C5  LIG d          84.641 170.946  73.435  0.00  0.00     0.018 C 
ATOM     22  C12 LIG d          86.342 172.783  73.449  0.00  0.00     0.019 C 
ATOM     23  C9  LIG d          87.650 171.336  71.093  0.00  0.00     0.005 C 
ATOM     24  C19 LIG d          83.979 166.696  76.786  0.00  0.00     0.026 C 
BRANCH  20  25
ATOM     25  C13 LIG d          85.500 172.646  70.631  0.00  0.00    -0.008 C 
ATOM     26  C22 LIG d          84.173 172.244  69.978  0.00  0.00     0.012 C 
BRANCH  25  27
ATOM     27  C21 LIG d          86.433 173.255  69.562  0.00  0.00     0.006 C 
BRANCH  27  28
ATOM     28  C25 LIG d          86.864 174.706  69.820  0.00  0.00     0.050 C 
BRANCH  28  29
ATOM     29  C26 LIG d          86.192 175.307  71.023  0.00  0.00    -0.054 C 
ATOM     30  C27 LIG d          86.081 176.607  71.356  0.00  0.00    -0.126 C 
ATOM     31  C28 LIG d          85.354 177.009  72.613  0.00  0.00     0.062 C 
ATOM     32  C29 LIG d          86.635 177.762  70.571  0.00  0.00     0.062 C 
ENDBRANCH  28  29
ENDBRANCH  27  28
ENDBRANCH  25  27
ENDBRANCH  20  25
ENDBRANCH   1   3
TORSDOF 5
ENDMDL
MODEL 2
REMARK VINA RESULT:     -11.2      1.145      1.924
REMARK  5 active torsions:
REMARK  status: ('A' for Active; 'I' for Inactive)
REMARK    1  A    between atoms: O_1  and  C20_22 
REMARK    2  A    between atoms: C4_6  and  C13_15 
REMARK    3  A    between atoms: C13_15  and  C21_23 
REMARK    4  A    between atoms: C21_23  and  C25_27 
REMARK    5  A    between atoms: C25_27  and  C26_28 
ROOT
ATOM      1  O   LIG d          85.865 165.819  78.156  0.00  0.00    -0.597 OA
ATOM      2  H42 LIG d          86.528 165.114  78.246  0.00  0.00     0.399 HD
ENDROOT
BRANCH   1   3
ATOM      3  C20 LIG d          85.239 165.670  76.877  0.00  0.00     0.181 C 
ATOM      4  C18 LIG d          86.289 165.888  75.753  0.00  0.00    -0.040 C 
ATOM      5  C14 LIG d          86.669 167.386  75.644  0.00  0.00    -0.088 C 
ATOM      6  C23 LIG d          87.493 164.951  76.035  0.00  0.00     0.022 C 
ATOM      7  C24 LIG d          85.699 165.439  74.394  0.00  0.00     0.022 C 
ATOM      8  C8  LIG d          85.506 168.387  75.620  0.00  0.00     0.037 C 
ATOM      9  C17 LIG d          87.942 167.800  75.510  0.00  0.00    -0.051 C 
ATOM     10  C3  LIG d          85.916 169.922  75.549  0.00  0.00    -0.023 C 
ATOM     11  C16 LIG d          84.536 168.084  76.791  0.00  0.00     0.033 C 
ATOM     12  C2  LIG d          87.261 170.150  74.746  0.00  0.00     0.011 C 
ATOM     13  C7  LIG d          84.716 170.746  74.950  0.00  0.00     0.004 C 
ATOM     14  C15 LIG d          86.155 170.476  76.986  0.00  0.00     0.016 C 
ATOM     15  C   LIG d          87.079 170.213  73.194  0.00  0.00    -0.038 C 
ATOM     16  C10 LIG d          88.372 169.205  75.235  0.00  0.00     0.054 C 
ATOM     17  C1  LIG d          86.010 171.315  72.849  0.00  0.00    -0.038 C 
ATOM     18  C6  LIG d          88.284 170.743  72.387  0.00  0.00     0.007 C 
ATOM     19  C11 LIG d          86.780 168.804  72.591  0.00  0.00     0.020 C 
ATOM     20  C4  LIG d          86.131 171.375  71.307  0.00  0.00    -0.004 C 
ATOM     21  C5  LIG d          84.657 170.873  73.415  0.00  0.00     0.018 C 
ATOM     22  C12 LIG d          86.327 172.738  73.422  0.00  0.00     0.019 C 
ATOM     23  C9  LIG d          87.664 171.297  71.078  0.00  0.00     0.005 C 
ATOM     24  C19 LIG d          84.058 166.635  76.794  0.00  0.00     0.026 C 
BRANCH  20  25
ATOM     25  C13 LIG d          85.494 172.568  70.602  0.00  0.00    -0.008 C 
ATOM     26  C22 LIG d          84.110 172.178  70.073  0.00  0.00     0.012 C 
BRANCH  25  27
ATOM     27  C21 LIG d          86.357 173.098  69.437  0.00  0.00     0.006 C 
BRANCH  27  28
ATOM     28  C25 LIG d          86.932 174.507  69.635  0.00  0.00     0.050 C 
BRANCH  28  29
ATOM     29  C26 LIG d          87.672 175.008  68.426  0.00  0.00    -0.054 C 
ATOM     30  C27 LIG d          88.938 174.742  68.050  0.00  0.00    -0.126 C 
ATOM     31  C28 LIG d          89.496 175.342  66.787  0.00  0.00     0.062 C 
ATOM     32  C29 LIG d          89.905 173.868  68.795  0.00  0.00     0.062 C 
ENDBRANCH  28  29
ENDBRANCH  27  28
ENDBRANCH  25  27
ENDBRANCH  20  25
ENDBRANCH   1   3
TORSDOF 5
ENDMDL
MODEL 3
REMARK VINA RESULT:     -10.8      1.520      2.065
REMARK  5 active torsions:
REMARK  status: ('A' for Active; 'I' for Inactive)
REMARK    1  A    between atoms: O_1  and  C20_22 
REMARK    2  A    between atoms: C4_6  and  C13_15 
REMARK    3  A    between atoms: C13_15  and  C21_23 
REMARK    4  A    between atoms: C21_23  and  C25_27 
REMARK    5  A    between atoms: C25_27  and  C26_28 
ROOT
ATOM      1  O   LIG d          84.898 165.674  77.495  0.00  0.00    -0.597 OA
ATOM      2  H42 LIG d          84.282 165.105  77.986  0.00  0.00     0.399 HD
ENDROOT
BRANCH   1   3
ATOM      3  C20 LIG d          84.531 165.626  76.112  0.00  0.00     0.181 C 
ATOM      4  C18 LIG d          85.793 165.842  75.230  0.00  0.00    -0.040 C 
ATOM      5  C14 LIG d          86.253 167.321  75.290  0.00  0.00    -0.088 C 
ATOM      6  C23 LIG d          86.873 164.826  75.684  0.00  0.00     0.022 C 
ATOM      7  C24 LIG d          85.464 165.498  73.757  0.00  0.00     0.022 C 
ATOM      8  C8  LIG d          85.163 168.385  75.101  0.00  0.00     0.037 C 
ATOM      9  C17 LIG d          87.544 167.670  75.433  0.00  0.00    -0.051 C 
ATOM     10  C3  LIG d          85.646 169.896  75.206  0.00  0.00    -0.023 C 
ATOM     11  C16 LIG d          83.968 168.076  76.039  0.00  0.00     0.033 C 
ATOM     12  C2  LIG d          87.133 170.090  74.696  0.00  0.00     0.011 C 
ATOM     13  C7  LIG d          84.627 170.815  74.435  0.00  0.00     0.004 C 
ATOM     14  C15 LIG d          85.620 170.361  76.693  0.00  0.00     0.016 C 
ATOM     15  C   LIG d          87.265 170.242  73.146  0.00  0.00    -0.038 C 
ATOM     16  C10 LIG d          88.082 169.060  75.334  0.00  0.00     0.054 C 
ATOM     17  C1  LIG d          86.336 171.418  72.667  0.00  0.00    -0.038 C 
ATOM     18  C6  LIG d          88.629 170.746  72.623  0.00  0.00     0.007 C 
ATOM     19  C11 LIG d          87.029 168.886  72.410  0.00  0.00     0.020 C 
ATOM     20  C4  LIG d          86.763 171.552  71.186  0.00  0.00    -0.004 C 
ATOM     21  C5  LIG d          84.879 171.024  72.930  0.00  0.00     0.018 C 
ATOM     22  C12 LIG d          86.597 172.790  73.377  0.00  0.00     0.019 C 
ATOM     23  C9  LIG d          88.306 171.400  71.256  0.00  0.00     0.005 C 
ATOM     24  C19 LIG d          83.435 166.658  75.859  0.00  0.00     0.026 C 
BRANCH  20  25
ATOM     25  C13 LIG d          86.332 172.813  70.444  0.00  0.00    -0.008 C 
ATOM     26  C22 LIG d          85.713 172.434  69.094  0.00  0.00     0.012 C 
BRANCH  25  27
ATOM     27  C21 LIG d          87.502 173.793  70.214  0.00  0.00     0.006 C 
BRANCH  27  28
ATOM     28  C25 LIG d          87.658 174.301  68.773  0.00  0.00     0.050 C 
BRANCH  28  29
ATOM     29  C26 LIG d          88.623 175.448  68.663  0.00  0.00    -0.054 C 
ATOM     30  C27 LIG d          89.256 175.906  67.566  0.00  0.00    -0.126 C 
ATOM     31  C28 LIG d          90.187 177.086  67.665  0.00  0.00     0.062 C 
ATOM     32  C29 LIG d          89.128 175.338  66.181  0.00  0.00     0.062 C 
ENDBRANCH  28  29
ENDBRANCH  27  28
ENDBRANCH  25  27
ENDBRANCH  20  25
ENDBRANCH   1   3
TORSDOF 5
ENDMDL
MODEL 4
REMARK VINA RESULT:     -10.5      1.578      2.422
REMARK  5 active torsions:
REMARK  status: ('A' for Active; 'I' for Inactive)
REMARK    1  A    between atoms: O_1  and  C20_22 
REMARK    2  A    between atoms: C4_6  and  C13_15 
REMARK    3  A    between atoms: C13_15  and  C21_23 
REMARK    4  A    between atoms: C21_23  and  C25_27 
REMARK    5  A    between atoms: C25_27  and  C26_28 
ROOT
ATOM      1  O   LIG d          84.440 165.286  76.224  0.00  0.00    -0.597 OA
ATOM      2  H42 LIG d          83.658 164.833  76.582  0.00  0.00     0.399 HD
ENDROOT
BRANCH   1   3
ATOM      3  C20 LIG d          84.121 165.729  74.900  0.00  0.00     0.181 C 
ATOM      4  C18 LIG d          85.427 166.112  74.150  0.00  0.00    -0.040 C 
ATOM      5  C14 LIG d          86.002 167.442  74.700  0.00  0.00    -0.088 C 
ATOM      6  C23 LIG d          86.405 164.912  74.250  0.00  0.00     0.022 C 
ATOM      7  C24 LIG d          85.125 166.301  72.643  0.00  0.00     0.022 C 
ATOM      8  C8  LIG d          85.008 168.600  74.865  0.00  0.00     0.037 C 
ATOM      9  C17 LIG d          87.311 167.610  74.960  0.00  0.00    -0.051 C 
ATOM     10  C3  LIG d          85.607 169.944  75.468  0.00  0.00    -0.023 C 
ATOM     11  C16 LIG d          83.759 168.106  75.638  0.00  0.00     0.033 C 
ATOM     12  C2  LIG d          87.121 170.163  75.063  0.00  0.00     0.011 C 
ATOM     13  C7  LIG d          84.693 171.151  75.038  0.00  0.00     0.004 C 
ATOM     14  C15 LIG d          85.564 169.894  77.026  0.00  0.00     0.016 C 
ATOM     15  C   LIG d          87.322 170.806  73.652  0.00  0.00    -0.038 C 
ATOM     16  C10 LIG d          87.962 168.902  75.331  0.00  0.00     0.054 C 
ATOM     17  C1  LIG d          86.508 172.150  73.583  0.00  0.00    -0.038 C 
ATOM     18  C6  LIG d          88.740 171.332  73.337  0.00  0.00     0.007 C 
ATOM     19  C11 LIG d          87.005 169.793  72.507  0.00  0.00     0.020 C 
ATOM     20  C4  LIG d          86.998 172.726  72.232  0.00  0.00    -0.004 C 
ATOM     21  C5  LIG d          85.016 171.821  73.688  0.00  0.00     0.018 C 
ATOM     22  C12 LIG d          86.852 173.184  74.709  0.00  0.00     0.019 C 
ATOM     23  C9  LIG d          88.521 172.425  72.260  0.00  0.00     0.005 C 
ATOM     24  C19 LIG d          83.121 166.878  74.995  0.00  0.00     0.026 C 
BRANCH  20  25
ATOM     25  C13 LIG d          86.697 174.194  71.947  0.00  0.00    -0.008 C 
ATOM     26  C22 LIG d          85.282 174.330  71.372  0.00  0.00     0.012 C 
BRANCH  25  27
ATOM     27  C21 LIG d          87.710 174.827  70.969  0.00  0.00     0.006 C 
BRANCH  27  28
ATOM     28  C25 LIG d          87.092 175.585  69.786  0.00  0.00     0.050 C 
BRANCH  28  29
ATOM     29  C26 LIG d          88.012 175.656  68.598  0.00  0.00    -0.054 C 
ATOM     30  C27 LIG d          88.286 174.696  67.694  0.00  0.00    -0.126 C 
ATOM     31  C28 LIG d          89.239 174.972  66.561  0.00  0.00     0.062 C 
ATOM     32  C29 LIG d          87.714 173.308  67.693  0.00  0.00     0.062 C 
ENDBRANCH  28  29
ENDBRANCH  27  28
ENDBRANCH  25  27
ENDBRANCH  20  25
ENDBRANCH   1   3
TORSDOF 5
ENDMDL
MODEL 5
REMARK VINA RESULT:     -10.4      2.743      8.136
REMARK  5 active torsions:
REMARK  status: ('A' for Active; 'I' for Inactive)
REMARK    1  A    between atoms: O_1  and  C20_22 
REMARK    2  A    between atoms: C4_6  and  C13_15 
REMARK    3  A    between atoms: C13_15  and  C21_23 
REMARK    4  A    between atoms: C21_23  and  C25_27 
REMARK    5  A    between atoms: C25_27  and  C26_28 
ROOT
ATOM      1  O   LIG d          89.388 174.460  69.961  0.00  0.00    -0.597 OA
ATOM      2  H42 LIG d          89.697 174.086  70.803  0.00  0.00     0.399 HD
ENDROOT
BRANCH   1   3
ATOM      3  C20 LIG d          88.608 173.460  69.298  0.00  0.00     0.181 C 
ATOM      4  C18 LIG d          87.143 173.512  69.815  0.00  0.00    -0.040 C 
ATOM      5  C14 LIG d          87.054 172.949  71.256  0.00  0.00    -0.088 C 
ATOM      6  C23 LIG d          86.639 174.972  69.676  0.00  0.00     0.022 C 
ATOM      7  C24 LIG d          86.237 172.651  68.902  0.00  0.00     0.022 C 
ATOM      8  C8  LIG d          87.765 171.613  71.514  0.00  0.00     0.037 C 
ATOM      9  C17 LIG d          86.339 173.551  72.224  0.00  0.00    -0.051 C 
ATOM     10  C3  LIG d          87.697 171.070  73.006  0.00  0.00    -0.023 C 
ATOM     11  C16 LIG d          89.215 171.685  70.972  0.00  0.00     0.033 C 
ATOM     12  C2  LIG d          86.354 171.483  73.737  0.00  0.00     0.011 C 
ATOM     13  C7  LIG d          87.916 169.512  72.996  0.00  0.00     0.004 C 
ATOM     14  C15 LIG d          88.865 171.673  73.846  0.00  0.00     0.016 C 
ATOM     15  C   LIG d          85.142 170.544  73.430  0.00  0.00    -0.038 C 
ATOM     16  C10 LIG d          86.071 172.987  73.581  0.00  0.00     0.054 C 
ATOM     17  C1  LIG d          85.546 169.061  73.765  0.00  0.00    -0.038 C 
ATOM     18  C6  LIG d          83.908 170.702  74.345  0.00  0.00     0.007 C 
ATOM     19  C11 LIG d          84.599 170.760  71.982  0.00  0.00     0.020 C 
ATOM     20  C4  LIG d          84.186 168.340  73.610  0.00  0.00    -0.004 C 
ATOM     21  C5  LIG d          86.664 168.634  72.808  0.00  0.00     0.018 C 
ATOM     22  C12 LIG d          86.056 168.835  75.229  0.00  0.00     0.019 C 
ATOM     23  C9  LIG d          83.192 169.329  74.275  0.00  0.00     0.005 C 
ATOM     24  C19 LIG d          89.272 172.101  69.505  0.00  0.00     0.026 C 
BRANCH  20  25
ATOM     25  C13 LIG d          84.075 166.928  74.176  0.00  0.00    -0.008 C 
ATOM     26  C22 LIG d          83.256 166.050  73.223  0.00  0.00     0.012 C 
BRANCH  25  27
ATOM     27  C21 LIG d          83.429 166.902  75.578  0.00  0.00     0.006 C 
BRANCH  27  28
ATOM     28  C25 LIG d          83.931 165.791  76.511  0.00  0.00     0.050 C 
BRANCH  28  29
ATOM     29  C26 LIG d          85.412 165.868  76.761  0.00  0.00    -0.054 C 
ATOM     30  C27 LIG d          86.401 165.199  76.139  0.00  0.00    -0.126 C 
ATOM     31  C28 LIG d          87.836 165.426  76.536  0.00  0.00     0.062 C 
ATOM     32  C29 LIG d          86.219 164.197  75.035  0.00  0.00     0.062 C 
ENDBRANCH  28  29
ENDBRANCH  27  28
ENDBRANCH  25  27
ENDBRANCH  20  25
ENDBRANCH   1   3
TORSDOF 5
ENDMDL
MODEL 6
REMARK VINA RESULT:     -10.3      2.668      8.314
REMARK  5 active torsions:
REMARK  status: ('A' for Active; 'I' for Inactive)
REMARK    1  A    between atoms: O_1  and  C20_22 
REMARK    2  A    between atoms: C4_6  and  C13_15 
REMARK    3  A    between atoms: C13_15  and  C21_23 
REMARK    4  A    between atoms: C21_23  and  C25_27 
REMARK    5  A    between atoms: C25_27  and  C26_28 
ROOT
ATOM      1  O   LIG d          88.227 175.383  69.860  0.00  0.00    -0.597 OA
ATOM      2  H42 LIG d          88.761 174.761  70.381  0.00  0.00     0.399 HD
ENDROOT
BRANCH   1   3
ATOM      3  C20 LIG d          86.862 174.958  69.938  0.00  0.00     0.181 C 
ATOM      4  C18 LIG d          86.371 175.045  71.410  0.00  0.00    -0.040 C 
ATOM      5  C14 LIG d          87.007 173.918  72.263  0.00  0.00    -0.088 C 
ATOM      6  C23 LIG d          86.670 176.475  71.930  0.00  0.00     0.022 C 
ATOM      7  C24 LIG d          84.833 174.878  71.457  0.00  0.00     0.022 C 
ATOM      8  C8  LIG d          86.966 172.503  71.669  0.00  0.00     0.037 C 
ATOM      9  C17 LIG d          87.511 174.139  73.491  0.00  0.00    -0.051 C 
ATOM     10  C3  LIG d          87.658 171.367  72.539  0.00  0.00    -0.023 C 
ATOM     11  C16 LIG d          87.490 172.538  70.211  0.00  0.00     0.033 C 
ATOM     12  C2  LIG d          87.549 171.649  74.093  0.00  0.00     0.011 C 
ATOM     13  C7  LIG d          87.047 169.972  72.141  0.00  0.00     0.004 C 
ATOM     14  C15 LIG d          89.179 171.293  72.205  0.00  0.00     0.016 C 
ATOM     15  C   LIG d          86.195 171.198  74.733  0.00  0.00    -0.038 C 
ATOM     16  C10 LIG d          87.986 173.084  74.435  0.00  0.00     0.054 C 
ATOM     17  C1  LIG d          85.956 169.678  74.407  0.00  0.00    -0.038 C 
ATOM     18  C6  LIG d          86.151 171.153  76.277  0.00  0.00     0.007 C 
ATOM     19  C11 LIG d          85.021 172.144  74.326  0.00  0.00     0.020 C 
ATOM     20  C4  LIG d          84.718 169.375  75.285  0.00  0.00    -0.004 C 
ATOM     21  C5  LIG d          85.778 169.528  72.892  0.00  0.00     0.018 C 
ATOM     22  C12 LIG d          87.116 168.722  74.849  0.00  0.00     0.019 C 
ATOM     23  C9  LIG d          85.041 170.123  76.607  0.00  0.00     0.005 C 
ATOM     24  C19 LIG d          86.750 173.555  69.347  0.00  0.00     0.026 C 
BRANCH  20  25
ATOM     25  C13 LIG d          84.365 167.909  75.513  0.00  0.00    -0.008 C 
ATOM     26  C22 LIG d          82.999 167.602  74.889  0.00  0.00     0.012 C 
BRANCH  25  27
ATOM     27  C21 LIG d          84.340 167.532  77.010  0.00  0.00     0.006 C 
BRANCH  27  28
ATOM     28  C25 LIG d          85.121 166.263  77.380  0.00  0.00     0.050 C 
BRANCH  28  29
ATOM     29  C26 LIG d          85.250 165.305  76.228  0.00  0.00    -0.054 C 
ATOM     30  C27 LIG d          86.374 164.849  75.642  0.00  0.00    -0.126 C 
ATOM     31  C28 LIG d          86.290 163.877  74.494  0.00  0.00     0.062 C 
ATOM     32  C29 LIG d          87.776 165.224  76.029  0.00  0.00     0.062 C 
ENDBRANCH  28  29
ENDBRANCH  27  28
ENDBRANCH  25  27
ENDBRANCH  20  25
ENDBRANCH   1   3
TORSDOF 5
ENDMDL
MODEL 7
REMARK VINA RESULT:     -10.3      2.079      3.261
REMARK  5 active torsions:
REMARK  status: ('A' for Active; 'I' for Inactive)
REMARK    1  A    between atoms: O_1  and  C20_22 
REMARK    2  A    between atoms: C4_6  and  C13_15 
REMARK    3  A    between atoms: C13_15  and  C21_23 
REMARK    4  A    between atoms: C21_23  and  C25_27 
REMARK    5  A    between atoms: C25_27  and  C26_28 
ROOT
ATOM      1  O   LIG d          83.370 163.231  74.909  0.00  0.00    -0.597 OA
ATOM      2  H42 LIG d          82.856 163.962  75.290  0.00  0.00     0.399 HD
ENDROOT
BRANCH   1   3
ATOM      3  C20 LIG d          83.871 163.662  73.639  0.00  0.00     0.181 C 
ATOM      4  C18 LIG d          85.179 164.476  73.843  0.00  0.00    -0.040 C 
ATOM      5  C14 LIG d          84.867 165.869  74.447  0.00  0.00    -0.088 C 
ATOM      6  C23 LIG d          86.146 163.619  74.702  0.00  0.00     0.022 C 
ATOM      7  C24 LIG d          85.880 164.686  72.479  0.00  0.00     0.022 C 
ATOM      8  C8  LIG d          83.730 166.661  73.787  0.00  0.00     0.037 C 
ATOM      9  C17 LIG d          85.587 166.398  75.452  0.00  0.00    -0.051 C 
ATOM     10  C3  LIG d          83.396 168.069  74.444  0.00  0.00    -0.023 C 
ATOM     11  C16 LIG d          82.478 165.756  73.651  0.00  0.00     0.033 C 
ATOM     12  C2  LIG d          84.677 168.762  75.066  0.00  0.00     0.011 C 
ATOM     13  C7  LIG d          82.686 168.979  73.374  0.00  0.00     0.004 C 
ATOM     14  C15 LIG d          82.378 167.885  75.610  0.00  0.00     0.016 C 
ATOM     15  C   LIG d          85.549 169.546  74.031  0.00  0.00    -0.038 C 
ATOM     16  C10 LIG d          85.454 167.792  75.973  0.00  0.00     0.054 C 
ATOM     17  C1  LIG d          84.639 170.587  73.281  0.00  0.00    -0.038 C 
ATOM     18  C6  LIG d          86.618 170.494  74.618  0.00  0.00     0.007 C 
ATOM     19  C11 LIG d          86.340 168.579  73.095  0.00  0.00     0.020 C 
ATOM     20  C4  LIG d          85.698 171.389  72.485  0.00  0.00    -0.004 C 
ATOM     21  C5  LIG d          83.598 169.820  72.460  0.00  0.00     0.018 C 
ATOM     22  C12 LIG d          83.874 171.583  74.217  0.00  0.00     0.019 C 
ATOM     23  C9  LIG d          86.850 171.554  73.512  0.00  0.00     0.005 C 
ATOM     24  C19 LIG d          82.777 164.450  72.922  0.00  0.00     0.026 C 
BRANCH  20  25
ATOM     25  C13 LIG d          85.258 172.717  71.879  0.00  0.00    -0.008 C 
ATOM     26  C22 LIG d          85.101 172.567  70.362  0.00  0.00     0.012 C 
BRANCH  25  27
ATOM     27  C21 LIG d          86.250 173.862  72.180  0.00  0.00     0.006 C 
BRANCH  27  28
ATOM     28  C25 LIG d          86.853 174.548  70.946  0.00  0.00     0.050 C 
BRANCH  28  29
ATOM     29  C26 LIG d          88.354 174.621  70.998  0.00  0.00    -0.054 C 
ATOM     30  C27 LIG d          89.248 173.641  70.763  0.00  0.00    -0.126 C 
ATOM     31  C28 LIG d          90.724 173.922  70.860  0.00  0.00     0.062 C 
ATOM     32  C29 LIG d          88.914 172.223  70.395  0.00  0.00     0.062 C 
ENDBRANCH  28  29
ENDBRANCH  27  28
ENDBRANCH  25  27
ENDBRANCH  20  25
ENDBRANCH   1   3
TORSDOF 5
ENDMDL
MODEL 8
REMARK VINA RESULT:     -10.3      2.999      8.443
REMARK  5 active torsions:
REMARK  status: ('A' for Active; 'I' for Inactive)
REMARK    1  A    between atoms: O_1  and  C20_22 
REMARK    2  A    between atoms: C4_6  and  C13_15 
REMARK    3  A    between atoms: C13_15  and  C21_23 
REMARK    4  A    between atoms: C21_23  and  C25_27 
REMARK    5  A    between atoms: C25_27  and  C26_28 
ROOT
ATOM      1  O   LIG d          88.693 175.944  69.259  0.00  0.00    -0.597 OA
ATOM      2  H42 LIG d          88.454 176.043  68.322  0.00  0.00     0.399 HD
ENDROOT
BRANCH   1   3
ATOM      3  C20 LIG d          89.360 174.686  69.409  0.00  0.00     0.181 C 
ATOM      4  C18 LIG d          88.355 173.529  69.152  0.00  0.00    -0.040 C 
ATOM      5  C14 LIG d          87.360 173.399  70.332  0.00  0.00    -0.088 C 
ATOM      6  C23 LIG d          87.677 173.781  67.780  0.00  0.00     0.022 C 
ATOM      7  C24 LIG d          89.124 172.192  69.018  0.00  0.00     0.022 C 
ATOM      8  C8  LIG d          87.966 173.403  71.742  0.00  0.00     0.037 C 
ATOM      9  C17 LIG d          86.039 173.223  70.147  0.00  0.00    -0.051 C 
ATOM     10  C3  LIG d          86.927 173.310  72.942  0.00  0.00    -0.023 C 
ATOM     11  C16 LIG d          88.935 174.605  71.887  0.00  0.00     0.033 C 
ATOM     12  C2  LIG d          85.643 172.464  72.563  0.00  0.00     0.011 C 
ATOM     13  C7  LIG d          87.661 172.742  74.213  0.00  0.00     0.004 C 
ATOM     14  C15 LIG d          86.425 174.735  73.325  0.00  0.00     0.016 C 
ATOM     15  C   LIG d          85.826 170.919  72.711  0.00  0.00    -0.038 C 
ATOM     16  C10 LIG d          85.045 172.925  71.222  0.00  0.00     0.054 C 
ATOM     17  C1  LIG d          86.313 170.599  74.172  0.00  0.00    -0.038 C 
ATOM     18  C6  LIG d          84.536 170.071  72.664  0.00  0.00     0.007 C 
ATOM     19  C11 LIG d          86.731 170.334  71.581  0.00  0.00     0.020 C 
ATOM     20  C4  LIG d          86.224 169.054  74.185  0.00  0.00    -0.004 C 
ATOM     21  C5  LIG d          87.705 171.209  74.365  0.00  0.00     0.018 C 
ATOM     22  C12 LIG d          85.386 171.152  75.307  0.00  0.00     0.019 C 
ATOM     23  C9  LIG d          84.889 168.778  73.443  0.00  0.00     0.005 C 
ATOM     24  C19 LIG d          90.000 174.632  70.794  0.00  0.00     0.026 C 
BRANCH  20  25
ATOM     25  C13 LIG d          86.295 168.361  75.542  0.00  0.00    -0.008 C 
ATOM     26  C22 LIG d          87.425 167.326  75.536  0.00  0.00     0.012 C 
BRANCH  25  27
ATOM     27  C21 LIG d          84.968 167.669  75.922  0.00  0.00     0.006 C 
BRANCH  27  28
ATOM     28  C25 LIG d          85.090 166.189  76.314  0.00  0.00     0.050 C 
BRANCH  28  29
ATOM     29  C26 LIG d          84.109 165.313  75.584  0.00  0.00    -0.054 C 
ATOM     30  C27 LIG d          84.289 164.632  74.437  0.00  0.00    -0.126 C 
ATOM     31  C28 LIG d          83.173 163.796  73.868  0.00  0.00     0.062 C 
ATOM     32  C29 LIG d          85.548 164.615  73.619  0.00  0.00     0.062 C 
ENDBRANCH  28  29
ENDBRANCH  27  28
ENDBRANCH  25  27
ENDBRANCH  20  25
ENDBRANCH   1   3
TORSDOF 5
ENDMDL
MODEL 9
REMARK VINA RESULT:     -10.3      2.149      3.123
REMARK  5 active torsions:
REMARK  status: ('A' for Active; 'I' for Inactive)
REMARK    1  A    between atoms: O_1  and  C20_22 
REMARK    2  A    between atoms: C4_6  and  C13_15 
REMARK    3  A    between atoms: C13_15  and  C21_23 
REMARK    4  A    between atoms: C21_23  and  C25_27 
REMARK    5  A    between atoms: C25_27  and  C26_28 
ROOT
ATOM      1  O   LIG d          83.327 163.954  75.077  0.00  0.00    -0.597 OA
ATOM      2  H42 LIG d          82.772 163.160  75.001  0.00  0.00     0.399 HD
ENDROOT
BRANCH   1   3
ATOM      3  C20 LIG d          83.588 164.436  73.755  0.00  0.00     0.181 C 
ATOM      4  C18 LIG d          85.112 164.685  73.582  0.00  0.00    -0.040 C 
ATOM      5  C14 LIG d          85.551 165.945  74.372  0.00  0.00    -0.088 C 
ATOM      6  C23 LIG d          85.858 163.390  73.995  0.00  0.00     0.022 C 
ATOM      7  C24 LIG d          85.435 164.915  72.086  0.00  0.00     0.022 C 
ATOM      8  C8  LIG d          84.684 167.199  74.196  0.00  0.00     0.037 C 
ATOM      9  C17 LIG d          86.667 165.974  75.122  0.00  0.00    -0.051 C 
ATOM     10  C3  LIG d          85.125 168.469  75.043  0.00  0.00    -0.023 C 
ATOM     11  C16 LIG d          83.192 166.832  74.406  0.00  0.00     0.033 C 
ATOM     12  C2  LIG d          86.692 168.533  75.262  0.00  0.00     0.011 C 
ATOM     13  C7  LIG d          84.566 169.768  74.351  0.00  0.00     0.004 C 
ATOM     14  C15 LIG d          84.479 168.414  76.461  0.00  0.00     0.016 C 
ATOM     15  C   LIG d          87.482 169.160  74.068  0.00  0.00    -0.038 C 
ATOM     16  C10 LIG d          87.241 167.189  75.774  0.00  0.00     0.054 C 
ATOM     17  C1  LIG d          86.888 170.582  73.753  0.00  0.00    -0.038 C 
ATOM     18  C6  LIG d          88.954 169.537  74.346  0.00  0.00     0.007 C 
ATOM     19  C11 LIG d          87.540 168.193  72.843  0.00  0.00     0.020 C 
ATOM     20  C4  LIG d          87.914 171.112  72.722  0.00  0.00    -0.004 C 
ATOM     21  C5  LIG d          85.447 170.409  73.262  0.00  0.00     0.018 C 
ATOM     22  C12 LIG d          86.864 171.567  74.971  0.00  0.00     0.019 C 
ATOM     23  C9  LIG d          89.272 170.654  73.319  0.00  0.00     0.005 C 
ATOM     24  C19 LIG d          82.741 165.682  73.511  0.00  0.00     0.026 C 
BRANCH  20  25
ATOM     25  C13 LIG d          87.885 172.605  72.411  0.00  0.00    -0.008 C 
ATOM     26  C22 LIG d          86.616 172.945  71.623  0.00  0.00     0.012 C 
BRANCH  25  27
ATOM     27  C21 LIG d          89.123 173.068  71.614  0.00  0.00     0.006 C 
BRANCH  27  28
ATOM     28  C25 LIG d          89.288 172.426  70.229  0.00  0.00     0.050 C 
BRANCH  28  29
ATOM     29  C26 LIG d          89.208 173.428  69.111  0.00  0.00    -0.054 C 
ATOM     30  C27 LIG d          88.293 173.512  68.126  0.00  0.00    -0.126 C 
ATOM     31  C28 LIG d          88.386 174.606  67.096  0.00  0.00     0.062 C 
ATOM     32  C29 LIG d          87.129 172.583  67.933  0.00  0.00     0.062 C 
ENDBRANCH  28  29
ENDBRANCH  27  28
ENDBRANCH  25  27
ENDBRANCH  20  25
ENDBRANCH   1   3
TORSDOF 5
ENDMDL
